* NGSPICE file created from macro_tap.ext - technology: gf180mcuC

* Black-box entry subcircuit for gf180mcu_fd_sc_mcu7t5v0__fill_1 abstract view
.subckt gf180mcu_fd_sc_mcu7t5v0__fill_1 VDD VSS
.ends

* Black-box entry subcircuit for gf180mcu_fd_sc_mcu7t5v0__filltie abstract view
.subckt gf180mcu_fd_sc_mcu7t5v0__filltie VDD VSS
.ends

* Black-box entry subcircuit for gf180mcu_fd_sc_mcu7t5v0__fillcap_4 abstract view
.subckt gf180mcu_fd_sc_mcu7t5v0__fillcap_4 VDD VSS
.ends

* Black-box entry subcircuit for gf180mcu_fd_sc_mcu7t5v0__fillcap_64 abstract view
.subckt gf180mcu_fd_sc_mcu7t5v0__fillcap_64 VDD VSS
.ends

* Black-box entry subcircuit for gf180mcu_fd_sc_mcu7t5v0__fill_2 abstract view
.subckt gf180mcu_fd_sc_mcu7t5v0__fill_2 VDD VSS
.ends

* Black-box entry subcircuit for gf180mcu_fd_sc_mcu7t5v0__antenna abstract view
.subckt gf180mcu_fd_sc_mcu7t5v0__antenna I VDD VSS
.ends

* Black-box entry subcircuit for gf180mcu_fd_sc_mcu7t5v0__tiel abstract view
.subckt gf180mcu_fd_sc_mcu7t5v0__tiel ZN VDD VSS
.ends

* Black-box entry subcircuit for gf180mcu_fd_sc_mcu7t5v0__fillcap_32 abstract view
.subckt gf180mcu_fd_sc_mcu7t5v0__fillcap_32 VDD VSS
.ends

* Black-box entry subcircuit for gf180mcu_fd_sc_mcu7t5v0__oai21_1 abstract view
.subckt gf180mcu_fd_sc_mcu7t5v0__oai21_1 A1 A2 B ZN VDD VSS
.ends

* Black-box entry subcircuit for gf180mcu_fd_sc_mcu7t5v0__clkinv_1 abstract view
.subckt gf180mcu_fd_sc_mcu7t5v0__clkinv_1 I ZN VDD VSS
.ends

* Black-box entry subcircuit for gf180mcu_fd_sc_mcu7t5v0__fillcap_16 abstract view
.subckt gf180mcu_fd_sc_mcu7t5v0__fillcap_16 VDD VSS
.ends

* Black-box entry subcircuit for gf180mcu_fd_sc_mcu7t5v0__fillcap_8 abstract view
.subckt gf180mcu_fd_sc_mcu7t5v0__fillcap_8 VDD VSS
.ends

* Black-box entry subcircuit for gf180mcu_fd_sc_mcu7t5v0__clkbuf_3 abstract view
.subckt gf180mcu_fd_sc_mcu7t5v0__clkbuf_3 I Z VDD VSS
.ends

* Black-box entry subcircuit for gf180mcu_fd_sc_mcu7t5v0__endcap abstract view
.subckt gf180mcu_fd_sc_mcu7t5v0__endcap VDD VSS
.ends

* Black-box entry subcircuit for gf180mcu_fd_sc_mcu7t5v0__xor2_1 abstract view
.subckt gf180mcu_fd_sc_mcu7t5v0__xor2_1 A1 A2 Z VDD VSS
.ends

* Black-box entry subcircuit for gf180mcu_fd_sc_mcu7t5v0__clkbuf_1 abstract view
.subckt gf180mcu_fd_sc_mcu7t5v0__clkbuf_1 I Z VDD VSS
.ends

* Black-box entry subcircuit for gf180mcu_fd_sc_mcu7t5v0__nor2_1 abstract view
.subckt gf180mcu_fd_sc_mcu7t5v0__nor2_1 A1 A2 ZN VDD VSS
.ends

* Black-box entry subcircuit for gf180mcu_fd_sc_mcu7t5v0__nand2_1 abstract view
.subckt gf180mcu_fd_sc_mcu7t5v0__nand2_1 A1 A2 ZN VDD VSS
.ends

* Black-box entry subcircuit for gf180mcu_fd_sc_mcu7t5v0__oai22_1 abstract view
.subckt gf180mcu_fd_sc_mcu7t5v0__oai22_1 A1 A2 B1 B2 ZN VDD VSS
.ends

* Black-box entry subcircuit for gf180mcu_fd_sc_mcu7t5v0__and2_1 abstract view
.subckt gf180mcu_fd_sc_mcu7t5v0__and2_1 A1 A2 Z VDD VSS
.ends

* Black-box entry subcircuit for gf180mcu_fd_sc_mcu7t5v0__oai32_2 abstract view
.subckt gf180mcu_fd_sc_mcu7t5v0__oai32_2 A1 A2 A3 B1 B2 ZN VDD VSS
.ends

* Black-box entry subcircuit for gf180mcu_fd_sc_mcu7t5v0__xnor3_1 abstract view
.subckt gf180mcu_fd_sc_mcu7t5v0__xnor3_1 A1 A2 A3 ZN VDD VSS
.ends

* Black-box entry subcircuit for gf180mcu_fd_sc_mcu7t5v0__xor3_1 abstract view
.subckt gf180mcu_fd_sc_mcu7t5v0__xor3_1 A1 A2 A3 Z VDD VSS
.ends

* Black-box entry subcircuit for gf180mcu_fd_sc_mcu7t5v0__aoi21_1 abstract view
.subckt gf180mcu_fd_sc_mcu7t5v0__aoi21_1 A1 A2 B ZN VDD VSS
.ends

* Black-box entry subcircuit for gf180mcu_fd_sc_mcu7t5v0__aoi211_1 abstract view
.subckt gf180mcu_fd_sc_mcu7t5v0__aoi211_1 A1 A2 B C ZN VDD VSS
.ends

* Black-box entry subcircuit for gf180mcu_fd_sc_mcu7t5v0__mux2_2 abstract view
.subckt gf180mcu_fd_sc_mcu7t5v0__mux2_2 I0 I1 S Z VDD VSS
.ends

* Black-box entry subcircuit for gf180mcu_fd_sc_mcu7t5v0__xnor2_1 abstract view
.subckt gf180mcu_fd_sc_mcu7t5v0__xnor2_1 A1 A2 ZN VDD VSS
.ends

* Black-box entry subcircuit for gf180mcu_fd_sc_mcu7t5v0__and3_1 abstract view
.subckt gf180mcu_fd_sc_mcu7t5v0__and3_1 A1 A2 A3 Z VDD VSS
.ends

* Black-box entry subcircuit for gf180mcu_fd_sc_mcu7t5v0__dlyb_1 abstract view
.subckt gf180mcu_fd_sc_mcu7t5v0__dlyb_1 I Z VDD VSS
.ends

* Black-box entry subcircuit for gf180mcu_fd_sc_mcu7t5v0__or3_1 abstract view
.subckt gf180mcu_fd_sc_mcu7t5v0__or3_1 A1 A2 A3 Z VDD VSS
.ends

* Black-box entry subcircuit for gf180mcu_fd_sc_mcu7t5v0__buf_1 abstract view
.subckt gf180mcu_fd_sc_mcu7t5v0__buf_1 I Z VDD VSS
.ends

* Black-box entry subcircuit for gf180mcu_fd_sc_mcu7t5v0__aoi221_2 abstract view
.subckt gf180mcu_fd_sc_mcu7t5v0__aoi221_2 A1 A2 B1 B2 C ZN VDD VSS
.ends

* Black-box entry subcircuit for gf180mcu_fd_sc_mcu7t5v0__oai31_1 abstract view
.subckt gf180mcu_fd_sc_mcu7t5v0__oai31_1 A1 A2 A3 B ZN VDD VSS
.ends

* Black-box entry subcircuit for gf180mcu_fd_sc_mcu7t5v0__dlyc_1 abstract view
.subckt gf180mcu_fd_sc_mcu7t5v0__dlyc_1 I Z VDD VSS
.ends

* Black-box entry subcircuit for gf180mcu_fd_sc_mcu7t5v0__dlyd_1 abstract view
.subckt gf180mcu_fd_sc_mcu7t5v0__dlyd_1 I Z VDD VSS
.ends

* Black-box entry subcircuit for gf180mcu_fd_sc_mcu7t5v0__aoi22_1 abstract view
.subckt gf180mcu_fd_sc_mcu7t5v0__aoi22_1 A1 A2 B1 B2 ZN VDD VSS
.ends

* Black-box entry subcircuit for gf180mcu_fd_sc_mcu7t5v0__nand4_1 abstract view
.subckt gf180mcu_fd_sc_mcu7t5v0__nand4_1 A1 A2 A3 A4 ZN VDD VSS
.ends

* Black-box entry subcircuit for gf180mcu_fd_sc_mcu7t5v0__oai211_1 abstract view
.subckt gf180mcu_fd_sc_mcu7t5v0__oai211_1 A1 A2 B C ZN VDD VSS
.ends

* Black-box entry subcircuit for gf180mcu_fd_sc_mcu7t5v0__nand3_1 abstract view
.subckt gf180mcu_fd_sc_mcu7t5v0__nand3_1 A1 A2 A3 ZN VDD VSS
.ends

* Black-box entry subcircuit for gf180mcu_fd_sc_mcu7t5v0__aoi211_2 abstract view
.subckt gf180mcu_fd_sc_mcu7t5v0__aoi211_2 A1 A2 B C ZN VDD VSS
.ends

* Black-box entry subcircuit for gf180mcu_fd_sc_mcu7t5v0__nor3_1 abstract view
.subckt gf180mcu_fd_sc_mcu7t5v0__nor3_1 A1 A2 A3 ZN VDD VSS
.ends

.subckt macro_tap io_active io_in[0] io_in[10] io_in[11] io_in[12] io_in[13] io_in[14]
+ io_in[15] io_in[16] io_in[17] io_in[18] io_in[19] io_in[1] io_in[20] io_in[21] io_in[22]
+ io_in[23] io_in[24] io_in[25] io_in[26] io_in[27] io_in[28] io_in[29] io_in[2] io_in[30]
+ io_in[31] io_in[32] io_in[33] io_in[34] io_in[35] io_in[36] io_in[37] io_in[3] io_in[4]
+ io_in[5] io_in[6] io_in[7] io_in[8] io_in[9] io_oeb[0] io_oeb[10] io_oeb[11] io_oeb[12]
+ io_oeb[13] io_oeb[14] io_oeb[15] io_oeb[16] io_oeb[17] io_oeb[18] io_oeb[19] io_oeb[1]
+ io_oeb[20] io_oeb[21] io_oeb[22] io_oeb[23] io_oeb[24] io_oeb[25] io_oeb[26] io_oeb[27]
+ io_oeb[28] io_oeb[29] io_oeb[2] io_oeb[30] io_oeb[31] io_oeb[32] io_oeb[33] io_oeb[34]
+ io_oeb[35] io_oeb[36] io_oeb[37] io_oeb[3] io_oeb[4] io_oeb[5] io_oeb[6] io_oeb[7]
+ io_oeb[8] io_oeb[9] io_out[0] io_out[10] io_out[11] io_out[12] io_out[13] io_out[14]
+ io_out[15] io_out[16] io_out[17] io_out[18] io_out[19] io_out[1] io_out[20] io_out[21]
+ io_out[22] io_out[23] io_out[24] io_out[25] io_out[26] io_out[27] io_out[28] io_out[29]
+ io_out[2] io_out[30] io_out[31] io_out[32] io_out[33] io_out[34] io_out[35] io_out[36]
+ io_out[37] io_out[3] io_out[4] io_out[5] io_out[6] io_out[7] io_out[8] io_out[9]
+ irq[0] irq[1] irq[2] la_data_in[0] la_data_in[10] la_data_in[11] la_data_in[12]
+ la_data_in[13] la_data_in[14] la_data_in[15] la_data_in[16] la_data_in[17] la_data_in[18]
+ la_data_in[19] la_data_in[1] la_data_in[20] la_data_in[21] la_data_in[22] la_data_in[23]
+ la_data_in[24] la_data_in[25] la_data_in[26] la_data_in[27] la_data_in[28] la_data_in[29]
+ la_data_in[2] la_data_in[30] la_data_in[31] la_data_in[32] la_data_in[33] la_data_in[34]
+ la_data_in[35] la_data_in[36] la_data_in[37] la_data_in[38] la_data_in[39] la_data_in[3]
+ la_data_in[40] la_data_in[41] la_data_in[42] la_data_in[43] la_data_in[44] la_data_in[45]
+ la_data_in[46] la_data_in[47] la_data_in[48] la_data_in[49] la_data_in[4] la_data_in[50]
+ la_data_in[51] la_data_in[52] la_data_in[53] la_data_in[54] la_data_in[55] la_data_in[56]
+ la_data_in[57] la_data_in[58] la_data_in[59] la_data_in[5] la_data_in[60] la_data_in[61]
+ la_data_in[62] la_data_in[63] la_data_in[6] la_data_in[7] la_data_in[8] la_data_in[9]
+ la_data_out[0] la_data_out[10] la_data_out[11] la_data_out[12] la_data_out[13] la_data_out[14]
+ la_data_out[15] la_data_out[16] la_data_out[17] la_data_out[18] la_data_out[19]
+ la_data_out[1] la_data_out[20] la_data_out[21] la_data_out[22] la_data_out[23] la_data_out[24]
+ la_data_out[25] la_data_out[26] la_data_out[27] la_data_out[28] la_data_out[29]
+ la_data_out[2] la_data_out[30] la_data_out[31] la_data_out[32] la_data_out[33] la_data_out[34]
+ la_data_out[35] la_data_out[36] la_data_out[37] la_data_out[38] la_data_out[39]
+ la_data_out[3] la_data_out[40] la_data_out[41] la_data_out[42] la_data_out[43] la_data_out[44]
+ la_data_out[45] la_data_out[46] la_data_out[47] la_data_out[48] la_data_out[49]
+ la_data_out[4] la_data_out[50] la_data_out[51] la_data_out[52] la_data_out[53] la_data_out[54]
+ la_data_out[55] la_data_out[56] la_data_out[57] la_data_out[58] la_data_out[59]
+ la_data_out[5] la_data_out[60] la_data_out[61] la_data_out[62] la_data_out[63] la_data_out[6]
+ la_data_out[7] la_data_out[8] la_data_out[9] la_oenb[0] la_oenb[10] la_oenb[11]
+ la_oenb[12] la_oenb[13] la_oenb[14] la_oenb[15] la_oenb[16] la_oenb[17] la_oenb[18]
+ la_oenb[19] la_oenb[1] la_oenb[20] la_oenb[21] la_oenb[22] la_oenb[23] la_oenb[24]
+ la_oenb[25] la_oenb[26] la_oenb[27] la_oenb[28] la_oenb[29] la_oenb[2] la_oenb[30]
+ la_oenb[31] la_oenb[32] la_oenb[33] la_oenb[34] la_oenb[35] la_oenb[36] la_oenb[37]
+ la_oenb[38] la_oenb[39] la_oenb[3] la_oenb[40] la_oenb[41] la_oenb[42] la_oenb[43]
+ la_oenb[44] la_oenb[45] la_oenb[46] la_oenb[47] la_oenb[48] la_oenb[49] la_oenb[4]
+ la_oenb[50] la_oenb[51] la_oenb[52] la_oenb[53] la_oenb[54] la_oenb[55] la_oenb[56]
+ la_oenb[57] la_oenb[58] la_oenb[59] la_oenb[5] la_oenb[60] la_oenb[61] la_oenb[62]
+ la_oenb[63] la_oenb[6] la_oenb[7] la_oenb[8] la_oenb[9] vdd vss wb_clk_i wb_rst_i
+ wbs_ack_o wbs_adr_i[0] wbs_adr_i[10] wbs_adr_i[11] wbs_adr_i[12] wbs_adr_i[13] wbs_adr_i[14]
+ wbs_adr_i[15] wbs_adr_i[16] wbs_adr_i[17] wbs_adr_i[18] wbs_adr_i[19] wbs_adr_i[1]
+ wbs_adr_i[20] wbs_adr_i[21] wbs_adr_i[22] wbs_adr_i[23] wbs_adr_i[24] wbs_adr_i[25]
+ wbs_adr_i[26] wbs_adr_i[27] wbs_adr_i[28] wbs_adr_i[29] wbs_adr_i[2] wbs_adr_i[30]
+ wbs_adr_i[31] wbs_adr_i[3] wbs_adr_i[4] wbs_adr_i[5] wbs_adr_i[6] wbs_adr_i[7] wbs_adr_i[8]
+ wbs_adr_i[9] wbs_cyc_i wbs_dat_i[0] wbs_dat_i[10] wbs_dat_i[11] wbs_dat_i[12] wbs_dat_i[13]
+ wbs_dat_i[14] wbs_dat_i[15] wbs_dat_i[16] wbs_dat_i[17] wbs_dat_i[18] wbs_dat_i[19]
+ wbs_dat_i[1] wbs_dat_i[20] wbs_dat_i[21] wbs_dat_i[22] wbs_dat_i[23] wbs_dat_i[24]
+ wbs_dat_i[25] wbs_dat_i[26] wbs_dat_i[27] wbs_dat_i[28] wbs_dat_i[29] wbs_dat_i[2]
+ wbs_dat_i[30] wbs_dat_i[31] wbs_dat_i[3] wbs_dat_i[4] wbs_dat_i[5] wbs_dat_i[6]
+ wbs_dat_i[7] wbs_dat_i[8] wbs_dat_i[9] wbs_dat_o[0] wbs_dat_o[10] wbs_dat_o[11]
+ wbs_dat_o[12] wbs_dat_o[13] wbs_dat_o[14] wbs_dat_o[15] wbs_dat_o[16] wbs_dat_o[17]
+ wbs_dat_o[18] wbs_dat_o[19] wbs_dat_o[1] wbs_dat_o[20] wbs_dat_o[21] wbs_dat_o[22]
+ wbs_dat_o[23] wbs_dat_o[24] wbs_dat_o[25] wbs_dat_o[26] wbs_dat_o[27] wbs_dat_o[28]
+ wbs_dat_o[29] wbs_dat_o[2] wbs_dat_o[30] wbs_dat_o[31] wbs_dat_o[3] wbs_dat_o[4]
+ wbs_dat_o[5] wbs_dat_o[6] wbs_dat_o[7] wbs_dat_o[8] wbs_dat_o[9] wbs_sel_i[0] wbs_sel_i[1]
+ wbs_sel_i[2] wbs_sel_i[3] wbs_stb_i wbs_we_i
XFILLER_82_534 vdd vss gf180mcu_fd_sc_mcu7t5v0__fill_1
XTAP_199 vdd vss gf180mcu_fd_sc_mcu7t5v0__filltie
XTAP_188 vdd vss gf180mcu_fd_sc_mcu7t5v0__filltie
XFILLER_92_309 vdd vss gf180mcu_fd_sc_mcu7t5v0__fill_1
XFILLER_93_47 vdd vss gf180mcu_fd_sc_mcu7t5v0__fillcap_4
XFILLER_14_601 vdd vss gf180mcu_fd_sc_mcu7t5v0__fillcap_64
XFILLER_45_258 vdd vss gf180mcu_fd_sc_mcu7t5v0__fillcap_64
XFILLER_5_354 vdd vss gf180mcu_fd_sc_mcu7t5v0__fill_2
XFILLER_76_372 vdd vss gf180mcu_fd_sc_mcu7t5v0__fillcap_64
XFILLER_64_534 vdd vss gf180mcu_fd_sc_mcu7t5v0__fill_1
XFILLER_91_375 vdd vss gf180mcu_fd_sc_mcu7t5v0__fill_2
XFILLER_91_364 vdd vss gf180mcu_fd_sc_mcu7t5v0__fill_1
XFILLER_80_2 vdd vss gf180mcu_fd_sc_mcu7t5v0__fillcap_64
XANTENNA__249__I _054_ vdd vss gf180mcu_fd_sc_mcu7t5v0__antenna
XFILLER_70_537 vdd vss gf180mcu_fd_sc_mcu7t5v0__fillcap_64
XFILLER_27_258 vdd vss gf180mcu_fd_sc_mcu7t5v0__fillcap_64
XFILLER_11_615 vdd vss gf180mcu_fd_sc_mcu7t5v0__fillcap_64
XFILLER_92_139 vdd vss gf180mcu_fd_sc_mcu7t5v0__fill_2
XFILLER_86_681 vdd vss gf180mcu_fd_sc_mcu7t5v0__fillcap_4
XFILLER_46_534 vdd vss gf180mcu_fd_sc_mcu7t5v0__fill_1
XFILLER_58_372 vdd vss gf180mcu_fd_sc_mcu7t5v0__fillcap_64
XFILLER_6_685 vdd vss gf180mcu_fd_sc_mcu7t5v0__fill_2
Xmacro_tap_58 la_data_out[57] vdd vss gf180mcu_fd_sc_mcu7t5v0__tiel
Xmacro_tap_47 la_data_out[46] vdd vss gf180mcu_fd_sc_mcu7t5v0__tiel
Xmacro_tap_69 wbs_dat_o[3] vdd vss gf180mcu_fd_sc_mcu7t5v0__tiel
XFILLER_10_681 vdd vss gf180mcu_fd_sc_mcu7t5v0__fillcap_4
XFILLER_69_615 vdd vss gf180mcu_fd_sc_mcu7t5v0__fillcap_64
XFILLER_92_651 vdd vss gf180mcu_fd_sc_mcu7t5v0__fillcap_4
XFILLER_91_194 vdd vss gf180mcu_fd_sc_mcu7t5v0__fillcap_32
XFILLER_76_180 vdd vss gf180mcu_fd_sc_mcu7t5v0__fillcap_64
XFILLER_52_537 vdd vss gf180mcu_fd_sc_mcu7t5v0__fillcap_64
XFILLER_87_478 vdd vss gf180mcu_fd_sc_mcu7t5v0__fill_1
XFILLER_87_423 vdd vss gf180mcu_fd_sc_mcu7t5v0__fillcap_4
XFILLER_68_681 vdd vss gf180mcu_fd_sc_mcu7t5v0__fillcap_4
XFILLER_28_534 vdd vss gf180mcu_fd_sc_mcu7t5v0__fill_1
X_200_ _072_ _002_ net3 _015_ vdd vss gf180mcu_fd_sc_mcu7t5v0__oai21_1
XFILLER_11_423 vdd vss gf180mcu_fd_sc_mcu7t5v0__fillcap_64
X_131_ net3 _071_ vdd vss gf180mcu_fd_sc_mcu7t5v0__clkinv_1
XFILLER_73_194 vdd vss gf180mcu_fd_sc_mcu7t5v0__fillcap_64
XFILLER_0_46 vdd vss gf180mcu_fd_sc_mcu7t5v0__fill_2
XFILLER_34_537 vdd vss gf180mcu_fd_sc_mcu7t5v0__fillcap_64
XFILLER_58_180 vdd vss gf180mcu_fd_sc_mcu7t5v0__fillcap_64
XFILLER_9_66 vdd vss gf180mcu_fd_sc_mcu7t5v0__fillcap_64
XFILLER_61_356 vdd vss gf180mcu_fd_sc_mcu7t5v0__fill_1
XFILLER_43_2 vdd vss gf180mcu_fd_sc_mcu7t5v0__fillcap_64
XFILLER_69_423 vdd vss gf180mcu_fd_sc_mcu7t5v0__fillcap_64
XFILLER_80_687 vdd vss gf180mcu_fd_sc_mcu7t5v0__fill_1
XFILLER_80_665 vdd vss gf180mcu_fd_sc_mcu7t5v0__fillcap_16
XANTENNA__162__A2 net21 vdd vss gf180mcu_fd_sc_mcu7t5v0__antenna
XFILLER_0_625 vdd vss gf180mcu_fd_sc_mcu7t5v0__fill_2
XFILLER_90_407 vdd vss gf180mcu_fd_sc_mcu7t5v0__fill_2
XFILLER_16_537 vdd vss gf180mcu_fd_sc_mcu7t5v0__fillcap_64
XFILLER_55_194 vdd vss gf180mcu_fd_sc_mcu7t5v0__fillcap_64
XFILLER_71_687 vdd vss gf180mcu_fd_sc_mcu7t5v0__fill_1
XFILLER_43_356 vdd vss gf180mcu_fd_sc_mcu7t5v0__fill_1
XFILLER_62_665 vdd vss gf180mcu_fd_sc_mcu7t5v0__fillcap_16
XFILLER_62_687 vdd vss gf180mcu_fd_sc_mcu7t5v0__fill_1
XFILLER_21_551 vdd vss gf180mcu_fd_sc_mcu7t5v0__fillcap_64
XFILLER_25_356 vdd vss gf180mcu_fd_sc_mcu7t5v0__fill_1
XFILLER_37_194 vdd vss gf180mcu_fd_sc_mcu7t5v0__fillcap_64
XFILLER_53_687 vdd vss gf180mcu_fd_sc_mcu7t5v0__fill_1
XANTENNA__135__A2 _073_ vdd vss gf180mcu_fd_sc_mcu7t5v0__antenna
XFILLER_0_477 vdd vss gf180mcu_fd_sc_mcu7t5v0__fill_2
XFILLER_0_411 vdd vss gf180mcu_fd_sc_mcu7t5v0__fill_2
XFILLER_44_665 vdd vss gf180mcu_fd_sc_mcu7t5v0__fillcap_16
XFILLER_44_687 vdd vss gf180mcu_fd_sc_mcu7t5v0__fill_1
XFILLER_8_500 vdd vss gf180mcu_fd_sc_mcu7t5v0__fillcap_32
XFILLER_31_359 vdd vss gf180mcu_fd_sc_mcu7t5v0__fillcap_64
XTAP_326 vdd vss gf180mcu_fd_sc_mcu7t5v0__filltie
XTAP_315 vdd vss gf180mcu_fd_sc_mcu7t5v0__filltie
XFILLER_79_551 vdd vss gf180mcu_fd_sc_mcu7t5v0__fillcap_64
XTAP_304 vdd vss gf180mcu_fd_sc_mcu7t5v0__filltie
XFILLER_19_194 vdd vss gf180mcu_fd_sc_mcu7t5v0__fillcap_64
XFILLER_35_687 vdd vss gf180mcu_fd_sc_mcu7t5v0__fill_1
XFILLER_89_359 vdd vss gf180mcu_fd_sc_mcu7t5v0__fill_1
XFILLER_26_665 vdd vss gf180mcu_fd_sc_mcu7t5v0__fillcap_16
XFILLER_26_687 vdd vss gf180mcu_fd_sc_mcu7t5v0__fill_1
XFILLER_13_359 vdd vss gf180mcu_fd_sc_mcu7t5v0__fillcap_64
XFILLER_41_679 vdd vss gf180mcu_fd_sc_mcu7t5v0__fillcap_8
Xoutput31 net31 io_out[4] vdd vss gf180mcu_fd_sc_mcu7t5v0__clkbuf_3
XFILLER_91_546 vdd vss gf180mcu_fd_sc_mcu7t5v0__fill_2
XFILLER_76_532 vdd vss gf180mcu_fd_sc_mcu7t5v0__fill_2
XFILLER_0_263 vdd vss gf180mcu_fd_sc_mcu7t5v0__fill_2
XPHY_170 vdd vss gf180mcu_fd_sc_mcu7t5v0__endcap
XFILLER_17_687 vdd vss gf180mcu_fd_sc_mcu7t5v0__fill_1
XPHY_181 vdd vss gf180mcu_fd_sc_mcu7t5v0__endcap
XFILLER_86_307 vdd vss gf180mcu_fd_sc_mcu7t5v0__fill_2
XTAP_189 vdd vss gf180mcu_fd_sc_mcu7t5v0__filltie
XFILLER_23_679 vdd vss gf180mcu_fd_sc_mcu7t5v0__fillcap_8
XFILLER_85_351 vdd vss gf180mcu_fd_sc_mcu7t5v0__fill_2
XFILLER_58_532 vdd vss gf180mcu_fd_sc_mcu7t5v0__fill_2
XFILLER_5_322 vdd vss gf180mcu_fd_sc_mcu7t5v0__fillcap_32
XFILLER_41_487 vdd vss gf180mcu_fd_sc_mcu7t5v0__fillcap_64
XANTENNA__180__I _117_ vdd vss gf180mcu_fd_sc_mcu7t5v0__antenna
XFILLER_91_387 vdd vss gf180mcu_fd_sc_mcu7t5v0__fill_2
XFILLER_73_2 vdd vss gf180mcu_fd_sc_mcu7t5v0__fillcap_64
XFILLER_12_66 vdd vss gf180mcu_fd_sc_mcu7t5v0__fillcap_64
XFILLER_23_487 vdd vss gf180mcu_fd_sc_mcu7t5v0__fillcap_64
XFILLER_93_619 vdd vss gf180mcu_fd_sc_mcu7t5v0__fill_2
XFILLER_73_354 vdd vss gf180mcu_fd_sc_mcu7t5v0__fill_2
Xmacro_tap_59 la_data_out[58] vdd vss gf180mcu_fd_sc_mcu7t5v0__tiel
Xmacro_tap_48 la_data_out[47] vdd vss gf180mcu_fd_sc_mcu7t5v0__tiel
Xmacro_tap_37 la_data_out[36] vdd vss gf180mcu_fd_sc_mcu7t5v0__tiel
Xmacro_tap_190 la_data_out[28] vdd vss gf180mcu_fd_sc_mcu7t5v0__tiel
XFILLER_5_130 vdd vss gf180mcu_fd_sc_mcu7t5v0__fillcap_64
XANTENNA__238__A1 net17 vdd vss gf180mcu_fd_sc_mcu7t5v0__antenna
XFILLER_82_162 vdd vss gf180mcu_fd_sc_mcu7t5v0__fillcap_16
XFILLER_55_354 vdd vss gf180mcu_fd_sc_mcu7t5v0__fill_2
X_130_ net4 _069_ _070_ vdd vss gf180mcu_fd_sc_mcu7t5v0__xor2_1
XFILLER_3_2 vdd vss gf180mcu_fd_sc_mcu7t5v0__fillcap_64
XFILLER_74_685 vdd vss gf180mcu_fd_sc_mcu7t5v0__fill_2
XFILLER_36_2 vdd vss gf180mcu_fd_sc_mcu7t5v0__fillcap_64
XFILLER_37_354 vdd vss gf180mcu_fd_sc_mcu7t5v0__fill_2
XFILLER_64_162 vdd vss gf180mcu_fd_sc_mcu7t5v0__fillcap_16
XFILLER_0_637 vdd vss gf180mcu_fd_sc_mcu7t5v0__fill_2
XFILLER_90_419 vdd vss gf180mcu_fd_sc_mcu7t5v0__fill_1
XFILLER_56_685 vdd vss gf180mcu_fd_sc_mcu7t5v0__fill_2
XFILLER_7_258 vdd vss gf180mcu_fd_sc_mcu7t5v0__fillcap_64
XFILLER_19_354 vdd vss gf180mcu_fd_sc_mcu7t5v0__fill_2
XFILLER_46_162 vdd vss gf180mcu_fd_sc_mcu7t5v0__fillcap_16
XFILLER_38_685 vdd vss gf180mcu_fd_sc_mcu7t5v0__fill_2
XFILLER_20_66 vdd vss gf180mcu_fd_sc_mcu7t5v0__fillcap_64
XFILLER_0_489 vdd vss gf180mcu_fd_sc_mcu7t5v0__fill_2
XFILLER_0_423 vdd vss gf180mcu_fd_sc_mcu7t5v0__fill_2
XFILLER_28_162 vdd vss gf180mcu_fd_sc_mcu7t5v0__fillcap_16
XFILLER_8_534 vdd vss gf180mcu_fd_sc_mcu7t5v0__fill_1
XTAP_327 vdd vss gf180mcu_fd_sc_mcu7t5v0__filltie
XTAP_316 vdd vss gf180mcu_fd_sc_mcu7t5v0__filltie
XTAP_305 vdd vss gf180mcu_fd_sc_mcu7t5v0__filltie
XFILLER_89_338 vdd vss gf180mcu_fd_sc_mcu7t5v0__fill_2
XANTENNA_input11_I io_in[27] vdd vss gf180mcu_fd_sc_mcu7t5v0__antenna
XFILLER_15_66 vdd vss gf180mcu_fd_sc_mcu7t5v0__fillcap_64
Xoutput32 net32 io_out[5] vdd vss gf180mcu_fd_sc_mcu7t5v0__clkbuf_3
XFILLER_76_500 vdd vss gf180mcu_fd_sc_mcu7t5v0__fillcap_32
XFILLER_0_275 vdd vss gf180mcu_fd_sc_mcu7t5v0__fill_2
XPHY_182 vdd vss gf180mcu_fd_sc_mcu7t5v0__endcap
XPHY_171 vdd vss gf180mcu_fd_sc_mcu7t5v0__endcap
XPHY_160 vdd vss gf180mcu_fd_sc_mcu7t5v0__endcap
XANTENNA_input3_I io_in[19] vdd vss gf180mcu_fd_sc_mcu7t5v0__antenna
XFILLER_86_319 vdd vss gf180mcu_fd_sc_mcu7t5v0__fill_1
XFILLER_10_308 vdd vss gf180mcu_fd_sc_mcu7t5v0__fillcap_64
XFILLER_58_500 vdd vss gf180mcu_fd_sc_mcu7t5v0__fillcap_32
XFILLER_85_385 vdd vss gf180mcu_fd_sc_mcu7t5v0__fill_2
XFILLER_5_356 vdd vss gf180mcu_fd_sc_mcu7t5v0__fill_1
XFILLER_68_308 vdd vss gf180mcu_fd_sc_mcu7t5v0__fillcap_64
XFILLER_1_551 vdd vss gf180mcu_fd_sc_mcu7t5v0__fillcap_64
XFILLER_66_2 vdd vss gf180mcu_fd_sc_mcu7t5v0__fillcap_64
XFILLER_93_609 vdd vss gf180mcu_fd_sc_mcu7t5v0__fill_2
XANTENNA__247__A2 _038_ vdd vss gf180mcu_fd_sc_mcu7t5v0__antenna
XFILLER_73_322 vdd vss gf180mcu_fd_sc_mcu7t5v0__fillcap_32
XANTENNA__183__A1 _062_ vdd vss gf180mcu_fd_sc_mcu7t5v0__antenna
Xmacro_tap_49 la_data_out[48] vdd vss gf180mcu_fd_sc_mcu7t5v0__tiel
Xmacro_tap_38 la_data_out[37] vdd vss gf180mcu_fd_sc_mcu7t5v0__tiel
Xmacro_tap_191 la_data_out[29] vdd vss gf180mcu_fd_sc_mcu7t5v0__tiel
Xmacro_tap_180 la_data_out[18] vdd vss gf180mcu_fd_sc_mcu7t5v0__tiel
XFILLER_6_687 vdd vss gf180mcu_fd_sc_mcu7t5v0__fill_1
XFILLER_6_665 vdd vss gf180mcu_fd_sc_mcu7t5v0__fillcap_16
XFILLER_92_631 vdd vss gf180mcu_fd_sc_mcu7t5v0__fill_2
XFILLER_91_130 vdd vss gf180mcu_fd_sc_mcu7t5v0__fillcap_64
XFILLER_20_436 vdd vss gf180mcu_fd_sc_mcu7t5v0__fillcap_64
XFILLER_87_458 vdd vss gf180mcu_fd_sc_mcu7t5v0__fill_2
XFILLER_87_403 vdd vss gf180mcu_fd_sc_mcu7t5v0__fill_2
XANTENNA__229__A2 _038_ vdd vss gf180mcu_fd_sc_mcu7t5v0__antenna
XFILLER_82_130 vdd vss gf180mcu_fd_sc_mcu7t5v0__fillcap_32
XFILLER_55_322 vdd vss gf180mcu_fd_sc_mcu7t5v0__fillcap_32
XFILLER_23_66 vdd vss gf180mcu_fd_sc_mcu7t5v0__fillcap_64
XFILLER_3_679 vdd vss gf180mcu_fd_sc_mcu7t5v0__fillcap_8
XFILLER_93_439 vdd vss gf180mcu_fd_sc_mcu7t5v0__fill_2
XFILLER_86_480 vdd vss gf180mcu_fd_sc_mcu7t5v0__fill_2
XFILLER_78_436 vdd vss gf180mcu_fd_sc_mcu7t5v0__fillcap_64
XFILLER_73_130 vdd vss gf180mcu_fd_sc_mcu7t5v0__fillcap_64
XFILLER_0_48 vdd vss gf180mcu_fd_sc_mcu7t5v0__fill_1
X_189_ net20 _007_ vdd vss gf180mcu_fd_sc_mcu7t5v0__clkbuf_1
XFILLER_29_2 vdd vss gf180mcu_fd_sc_mcu7t5v0__fillcap_64
XFILLER_92_494 vdd vss gf180mcu_fd_sc_mcu7t5v0__fill_2
XFILLER_80_601 vdd vss gf180mcu_fd_sc_mcu7t5v0__fillcap_64
XFILLER_37_322 vdd vss gf180mcu_fd_sc_mcu7t5v0__fillcap_32
XFILLER_64_130 vdd vss gf180mcu_fd_sc_mcu7t5v0__fillcap_32
XFILLER_20_244 vdd vss gf180mcu_fd_sc_mcu7t5v0__fillcap_64
XFILLER_0_649 vdd vss gf180mcu_fd_sc_mcu7t5v0__fill_2
XFILLER_18_66 vdd vss gf180mcu_fd_sc_mcu7t5v0__fillcap_64
XFILLER_55_130 vdd vss gf180mcu_fd_sc_mcu7t5v0__fillcap_64
XANTENNA__138__A1 net7 vdd vss gf180mcu_fd_sc_mcu7t5v0__antenna
XFILLER_78_244 vdd vss gf180mcu_fd_sc_mcu7t5v0__fillcap_64
XFILLER_3_487 vdd vss gf180mcu_fd_sc_mcu7t5v0__fillcap_64
XFILLER_93_269 vdd vss gf180mcu_fd_sc_mcu7t5v0__fillcap_4
XFILLER_19_322 vdd vss gf180mcu_fd_sc_mcu7t5v0__fillcap_32
XFILLER_46_130 vdd vss gf180mcu_fd_sc_mcu7t5v0__fillcap_32
XFILLER_62_601 vdd vss gf180mcu_fd_sc_mcu7t5v0__fillcap_64
XANTENNA__129__A1 net8 vdd vss gf180mcu_fd_sc_mcu7t5v0__antenna
XFILLER_92_291 vdd vss gf180mcu_fd_sc_mcu7t5v0__fill_2
XFILLER_37_130 vdd vss gf180mcu_fd_sc_mcu7t5v0__fillcap_64
XFILLER_88_531 vdd vss gf180mcu_fd_sc_mcu7t5v0__fillcap_4
XFILLER_0_435 vdd vss gf180mcu_fd_sc_mcu7t5v0__fill_2
XFILLER_75_258 vdd vss gf180mcu_fd_sc_mcu7t5v0__fillcap_64
XFILLER_28_130 vdd vss gf180mcu_fd_sc_mcu7t5v0__fillcap_32
XFILLER_44_601 vdd vss gf180mcu_fd_sc_mcu7t5v0__fillcap_64
XTAP_328 vdd vss gf180mcu_fd_sc_mcu7t5v0__filltie
XTAP_317 vdd vss gf180mcu_fd_sc_mcu7t5v0__filltie
XTAP_306 vdd vss gf180mcu_fd_sc_mcu7t5v0__filltie
XFILLER_19_130 vdd vss gf180mcu_fd_sc_mcu7t5v0__fillcap_64
XFILLER_30_372 vdd vss gf180mcu_fd_sc_mcu7t5v0__fillcap_64
XFILLER_89_328 vdd vss gf180mcu_fd_sc_mcu7t5v0__fill_2
XFILLER_89_306 vdd vss gf180mcu_fd_sc_mcu7t5v0__fill_2
XFILLER_26_601 vdd vss gf180mcu_fd_sc_mcu7t5v0__fillcap_64
XFILLER_57_258 vdd vss gf180mcu_fd_sc_mcu7t5v0__fillcap_64
XFILLER_41_615 vdd vss gf180mcu_fd_sc_mcu7t5v0__fillcap_64
XANTENNA__233__B net5 vdd vss gf180mcu_fd_sc_mcu7t5v0__antenna
XFILLER_31_66 vdd vss gf180mcu_fd_sc_mcu7t5v0__fillcap_64
Xoutput33 net33 io_out[6] vdd vss gf180mcu_fd_sc_mcu7t5v0__clkbuf_3
Xoutput22 net22 io_out[0] vdd vss gf180mcu_fd_sc_mcu7t5v0__clkbuf_3
XFILLER_76_534 vdd vss gf180mcu_fd_sc_mcu7t5v0__fill_1
XFILLER_0_221 vdd vss gf180mcu_fd_sc_mcu7t5v0__fill_2
XFILLER_0_287 vdd vss gf180mcu_fd_sc_mcu7t5v0__fill_2
XPHY_183 vdd vss gf180mcu_fd_sc_mcu7t5v0__endcap
XPHY_172 vdd vss gf180mcu_fd_sc_mcu7t5v0__endcap
XPHY_161 vdd vss gf180mcu_fd_sc_mcu7t5v0__endcap
XPHY_150 vdd vss gf180mcu_fd_sc_mcu7t5v0__endcap
XFILLER_12_372 vdd vss gf180mcu_fd_sc_mcu7t5v0__fillcap_64
XFILLER_40_681 vdd vss gf180mcu_fd_sc_mcu7t5v0__fillcap_4
XFILLER_11_2 vdd vss gf180mcu_fd_sc_mcu7t5v0__fillcap_64
XFILLER_39_258 vdd vss gf180mcu_fd_sc_mcu7t5v0__fillcap_64
XFILLER_82_537 vdd vss gf180mcu_fd_sc_mcu7t5v0__fillcap_64
XFILLER_23_615 vdd vss gf180mcu_fd_sc_mcu7t5v0__fillcap_64
XFILLER_30_180 vdd vss gf180mcu_fd_sc_mcu7t5v0__fillcap_64
XFILLER_58_534 vdd vss gf180mcu_fd_sc_mcu7t5v0__fill_1
XFILLER_85_397 vdd vss gf180mcu_fd_sc_mcu7t5v0__fill_2
XFILLER_26_66 vdd vss gf180mcu_fd_sc_mcu7t5v0__fillcap_64
XFILLER_22_681 vdd vss gf180mcu_fd_sc_mcu7t5v0__fillcap_4
XFILLER_41_423 vdd vss gf180mcu_fd_sc_mcu7t5v0__fillcap_64
XFILLER_89_670 vdd vss gf180mcu_fd_sc_mcu7t5v0__fillcap_16
XFILLER_88_180 vdd vss gf180mcu_fd_sc_mcu7t5v0__fillcap_64
XANTENNA__189__I net20 vdd vss gf180mcu_fd_sc_mcu7t5v0__antenna
XFILLER_91_356 vdd vss gf180mcu_fd_sc_mcu7t5v0__fill_1
XFILLER_64_537 vdd vss gf180mcu_fd_sc_mcu7t5v0__fillcap_64
XFILLER_8_162 vdd vss gf180mcu_fd_sc_mcu7t5v0__fillcap_16
XFILLER_12_180 vdd vss gf180mcu_fd_sc_mcu7t5v0__fillcap_64
XFILLER_59_2 vdd vss gf180mcu_fd_sc_mcu7t5v0__fillcap_64
XFILLER_23_423 vdd vss gf180mcu_fd_sc_mcu7t5v0__fillcap_64
XFILLER_92_109 vdd vss gf180mcu_fd_sc_mcu7t5v0__fill_2
XANTENNA_output35_I net35 vdd vss gf180mcu_fd_sc_mcu7t5v0__antenna
XFILLER_85_194 vdd vss gf180mcu_fd_sc_mcu7t5v0__fillcap_64
XFILLER_73_356 vdd vss gf180mcu_fd_sc_mcu7t5v0__fill_1
Xmacro_tap_170 la_data_out[8] vdd vss gf180mcu_fd_sc_mcu7t5v0__tiel
XFILLER_46_537 vdd vss gf180mcu_fd_sc_mcu7t5v0__fillcap_64
XANTENNA__183__A2 net2 vdd vss gf180mcu_fd_sc_mcu7t5v0__antenna
Xmacro_tap_39 la_data_out[38] vdd vss gf180mcu_fd_sc_mcu7t5v0__tiel
Xmacro_tap_192 la_data_out[30] vdd vss gf180mcu_fd_sc_mcu7t5v0__tiel
Xmacro_tap_181 la_data_out[19] vdd vss gf180mcu_fd_sc_mcu7t5v0__tiel
XFILLER_92_610 vdd vss gf180mcu_fd_sc_mcu7t5v0__fill_2
XFILLER_92_687 vdd vss gf180mcu_fd_sc_mcu7t5v0__fill_1
XFILLER_87_415 vdd vss gf180mcu_fd_sc_mcu7t5v0__fill_2
XFILLER_83_687 vdd vss gf180mcu_fd_sc_mcu7t5v0__fill_1
XFILLER_67_194 vdd vss gf180mcu_fd_sc_mcu7t5v0__fillcap_64
XFILLER_28_537 vdd vss gf180mcu_fd_sc_mcu7t5v0__fillcap_64
XFILLER_55_356 vdd vss gf180mcu_fd_sc_mcu7t5v0__fill_1
XFILLER_51_551 vdd vss gf180mcu_fd_sc_mcu7t5v0__fillcap_64
XFILLER_74_665 vdd vss gf180mcu_fd_sc_mcu7t5v0__fillcap_16
XFILLER_74_687 vdd vss gf180mcu_fd_sc_mcu7t5v0__fill_1
XFILLER_61_359 vdd vss gf180mcu_fd_sc_mcu7t5v0__fillcap_64
X_188_ _091_ net10 _006_ vdd vss gf180mcu_fd_sc_mcu7t5v0__nor2_1
XFILLER_37_356 vdd vss gf180mcu_fd_sc_mcu7t5v0__fill_1
XFILLER_49_194 vdd vss gf180mcu_fd_sc_mcu7t5v0__fillcap_64
XFILLER_65_687 vdd vss gf180mcu_fd_sc_mcu7t5v0__fill_1
XFILLER_33_551 vdd vss gf180mcu_fd_sc_mcu7t5v0__fillcap_64
XFILLER_56_665 vdd vss gf180mcu_fd_sc_mcu7t5v0__fillcap_16
XFILLER_71_679 vdd vss gf180mcu_fd_sc_mcu7t5v0__fillcap_8
XFILLER_34_66 vdd vss gf180mcu_fd_sc_mcu7t5v0__fillcap_64
XFILLER_43_359 vdd vss gf180mcu_fd_sc_mcu7t5v0__fillcap_64
XFILLER_56_687 vdd vss gf180mcu_fd_sc_mcu7t5v0__fill_1
XFILLER_93_215 vdd vss gf180mcu_fd_sc_mcu7t5v0__fillcap_4
XFILLER_19_356 vdd vss gf180mcu_fd_sc_mcu7t5v0__fill_1
XFILLER_47_687 vdd vss gf180mcu_fd_sc_mcu7t5v0__fill_1
XFILLER_15_551 vdd vss gf180mcu_fd_sc_mcu7t5v0__fillcap_64
XFILLER_30_532 vdd vss gf180mcu_fd_sc_mcu7t5v0__fill_2
XFILLER_41_2 vdd vss gf180mcu_fd_sc_mcu7t5v0__fillcap_64
XFILLER_38_665 vdd vss gf180mcu_fd_sc_mcu7t5v0__fillcap_16
XFILLER_92_281 vdd vss gf180mcu_fd_sc_mcu7t5v0__fill_2
XFILLER_25_359 vdd vss gf180mcu_fd_sc_mcu7t5v0__fillcap_64
XFILLER_38_687 vdd vss gf180mcu_fd_sc_mcu7t5v0__fill_1
XFILLER_53_679 vdd vss gf180mcu_fd_sc_mcu7t5v0__fillcap_8
XFILLER_0_447 vdd vss gf180mcu_fd_sc_mcu7t5v0__fill_2
XFILLER_29_66 vdd vss gf180mcu_fd_sc_mcu7t5v0__fillcap_64
XFILLER_29_687 vdd vss gf180mcu_fd_sc_mcu7t5v0__fill_1
XFILLER_71_487 vdd vss gf180mcu_fd_sc_mcu7t5v0__fillcap_64
XFILLER_12_532 vdd vss gf180mcu_fd_sc_mcu7t5v0__fill_2
XTAP_329 vdd vss gf180mcu_fd_sc_mcu7t5v0__filltie
XTAP_318 vdd vss gf180mcu_fd_sc_mcu7t5v0__filltie
XTAP_307 vdd vss gf180mcu_fd_sc_mcu7t5v0__filltie
XFILLER_35_679 vdd vss gf180mcu_fd_sc_mcu7t5v0__fillcap_8
XFILLER_89_2 vdd vss gf180mcu_fd_sc_mcu7t5v0__fillcap_64
XFILLER_53_487 vdd vss gf180mcu_fd_sc_mcu7t5v0__fillcap_64
Xoutput23 net23 io_out[10] vdd vss gf180mcu_fd_sc_mcu7t5v0__clkbuf_3
Xoutput34 net34 io_out[7] vdd vss gf180mcu_fd_sc_mcu7t5v0__clkbuf_3
XFILLER_88_384 vdd vss gf180mcu_fd_sc_mcu7t5v0__fill_2
XFILLER_88_362 vdd vss gf180mcu_fd_sc_mcu7t5v0__fill_2
XFILLER_0_233 vdd vss gf180mcu_fd_sc_mcu7t5v0__fill_2
XFILLER_0_299 vdd vss gf180mcu_fd_sc_mcu7t5v0__fill_2
XFILLER_17_679 vdd vss gf180mcu_fd_sc_mcu7t5v0__fillcap_8
XPHY_184 vdd vss gf180mcu_fd_sc_mcu7t5v0__endcap
XPHY_173 vdd vss gf180mcu_fd_sc_mcu7t5v0__endcap
XPHY_162 vdd vss gf180mcu_fd_sc_mcu7t5v0__endcap
XPHY_151 vdd vss gf180mcu_fd_sc_mcu7t5v0__endcap
XPHY_140 vdd vss gf180mcu_fd_sc_mcu7t5v0__endcap
XFILLER_35_487 vdd vss gf180mcu_fd_sc_mcu7t5v0__fillcap_64
XFILLER_85_343 vdd vss gf180mcu_fd_sc_mcu7t5v0__fill_2
XFILLER_85_321 vdd vss gf180mcu_fd_sc_mcu7t5v0__fill_2
XFILLER_42_66 vdd vss gf180mcu_fd_sc_mcu7t5v0__fillcap_64
XFILLER_17_487 vdd vss gf180mcu_fd_sc_mcu7t5v0__fillcap_64
XFILLER_8_130 vdd vss gf180mcu_fd_sc_mcu7t5v0__fillcap_32
XFILLER_67_354 vdd vss gf180mcu_fd_sc_mcu7t5v0__fill_2
XFILLER_90_390 vdd vss gf180mcu_fd_sc_mcu7t5v0__fill_2
XFILLER_86_685 vdd vss gf180mcu_fd_sc_mcu7t5v0__fill_2
XFILLER_37_66 vdd vss gf180mcu_fd_sc_mcu7t5v0__fillcap_64
XANTENNA__239__B net13 vdd vss gf180mcu_fd_sc_mcu7t5v0__antenna
Xmacro_tap_160 irq[1] vdd vss gf180mcu_fd_sc_mcu7t5v0__tiel
Xmacro_tap_193 la_data_out[31] vdd vss gf180mcu_fd_sc_mcu7t5v0__tiel
Xmacro_tap_182 la_data_out[20] vdd vss gf180mcu_fd_sc_mcu7t5v0__tiel
Xmacro_tap_171 la_data_out[9] vdd vss gf180mcu_fd_sc_mcu7t5v0__tiel
XFILLER_6_601 vdd vss gf180mcu_fd_sc_mcu7t5v0__fillcap_64
XFILLER_10_685 vdd vss gf180mcu_fd_sc_mcu7t5v0__fill_2