* NGSPICE file created from macro_decap8.ext - technology: gf180mcuC

* Black-box entry subcircuit for gf180mcu_fd_sc_mcu7t5v0__fill_64 abstract view
.subckt gf180mcu_fd_sc_mcu7t5v0__fill_64 VDD VSS
.ends

* Black-box entry subcircuit for gf180mcu_fd_sc_mcu7t5v0__fill_1 abstract view
.subckt gf180mcu_fd_sc_mcu7t5v0__fill_1 VDD VSS
.ends

* Black-box entry subcircuit for gf180mcu_fd_sc_mcu7t5v0__filltie abstract view
.subckt gf180mcu_fd_sc_mcu7t5v0__filltie VDD VSS
.ends

* Black-box entry subcircuit for gf180mcu_fd_sc_mcu7t5v0__fill_4 abstract view
.subckt gf180mcu_fd_sc_mcu7t5v0__fill_4 VDD VSS
.ends

* Black-box entry subcircuit for gf180mcu_fd_sc_mcu7t5v0__fill_2 abstract view
.subckt gf180mcu_fd_sc_mcu7t5v0__fill_2 VDD VSS
.ends

* Black-box entry subcircuit for gf180mcu_fd_sc_mcu7t5v0__fill_32 abstract view
.subckt gf180mcu_fd_sc_mcu7t5v0__fill_32 VDD VSS
.ends

* Black-box entry subcircuit for gf180mcu_fd_sc_mcu7t5v0__antenna abstract view
.subckt gf180mcu_fd_sc_mcu7t5v0__antenna I VDD VSS
.ends

* Black-box entry subcircuit for gf180mcu_fd_sc_mcu7t5v0__oai21_1 abstract view
.subckt gf180mcu_fd_sc_mcu7t5v0__oai21_1 A1 A2 B ZN VDD VSS
.ends

* Black-box entry subcircuit for gf180mcu_fd_sc_mcu7t5v0__fillcap_8 abstract view
.subckt gf180mcu_fd_sc_mcu7t5v0__fillcap_8 VDD VSS
.ends

* Black-box entry subcircuit for gf180mcu_fd_sc_mcu7t5v0__clkinv_1 abstract view
.subckt gf180mcu_fd_sc_mcu7t5v0__clkinv_1 I ZN VDD VSS
.ends

* Black-box entry subcircuit for gf180mcu_fd_sc_mcu7t5v0__fill_16 abstract view
.subckt gf180mcu_fd_sc_mcu7t5v0__fill_16 VDD VSS
.ends

* Black-box entry subcircuit for gf180mcu_fd_sc_mcu7t5v0__tiel abstract view
.subckt gf180mcu_fd_sc_mcu7t5v0__tiel ZN VDD VSS
.ends

* Black-box entry subcircuit for gf180mcu_fd_sc_mcu7t5v0__clkbuf_3 abstract view
.subckt gf180mcu_fd_sc_mcu7t5v0__clkbuf_3 I Z VDD VSS
.ends

* Black-box entry subcircuit for gf180mcu_fd_sc_mcu7t5v0__endcap abstract view
.subckt gf180mcu_fd_sc_mcu7t5v0__endcap VDD VSS
.ends

* Black-box entry subcircuit for gf180mcu_fd_sc_mcu7t5v0__xor2_1 abstract view
.subckt gf180mcu_fd_sc_mcu7t5v0__xor2_1 A1 A2 Z VDD VSS
.ends

* Black-box entry subcircuit for gf180mcu_fd_sc_mcu7t5v0__clkbuf_1 abstract view
.subckt gf180mcu_fd_sc_mcu7t5v0__clkbuf_1 I Z VDD VSS
.ends

* Black-box entry subcircuit for gf180mcu_fd_sc_mcu7t5v0__nor2_1 abstract view
.subckt gf180mcu_fd_sc_mcu7t5v0__nor2_1 A1 A2 ZN VDD VSS
.ends

* Black-box entry subcircuit for gf180mcu_fd_sc_mcu7t5v0__nand2_1 abstract view
.subckt gf180mcu_fd_sc_mcu7t5v0__nand2_1 A1 A2 ZN VDD VSS
.ends

* Black-box entry subcircuit for gf180mcu_fd_sc_mcu7t5v0__oai22_1 abstract view
.subckt gf180mcu_fd_sc_mcu7t5v0__oai22_1 A1 A2 B1 B2 ZN VDD VSS
.ends

* Black-box entry subcircuit for gf180mcu_fd_sc_mcu7t5v0__and2_1 abstract view
.subckt gf180mcu_fd_sc_mcu7t5v0__and2_1 A1 A2 Z VDD VSS
.ends

* Black-box entry subcircuit for gf180mcu_fd_sc_mcu7t5v0__oai32_2 abstract view
.subckt gf180mcu_fd_sc_mcu7t5v0__oai32_2 A1 A2 A3 B1 B2 ZN VDD VSS
.ends

* Black-box entry subcircuit for gf180mcu_fd_sc_mcu7t5v0__xnor3_1 abstract view
.subckt gf180mcu_fd_sc_mcu7t5v0__xnor3_1 A1 A2 A3 ZN VDD VSS
.ends

* Black-box entry subcircuit for gf180mcu_fd_sc_mcu7t5v0__aoi21_1 abstract view
.subckt gf180mcu_fd_sc_mcu7t5v0__aoi21_1 A1 A2 B ZN VDD VSS
.ends

* Black-box entry subcircuit for gf180mcu_fd_sc_mcu7t5v0__xor3_1 abstract view
.subckt gf180mcu_fd_sc_mcu7t5v0__xor3_1 A1 A2 A3 Z VDD VSS
.ends

* Black-box entry subcircuit for gf180mcu_fd_sc_mcu7t5v0__aoi211_1 abstract view
.subckt gf180mcu_fd_sc_mcu7t5v0__aoi211_1 A1 A2 B C ZN VDD VSS
.ends

* Black-box entry subcircuit for gf180mcu_fd_sc_mcu7t5v0__mux2_2 abstract view
.subckt gf180mcu_fd_sc_mcu7t5v0__mux2_2 I0 I1 S Z VDD VSS
.ends

* Black-box entry subcircuit for gf180mcu_fd_sc_mcu7t5v0__xnor2_1 abstract view
.subckt gf180mcu_fd_sc_mcu7t5v0__xnor2_1 A1 A2 ZN VDD VSS
.ends

* Black-box entry subcircuit for gf180mcu_fd_sc_mcu7t5v0__and3_1 abstract view
.subckt gf180mcu_fd_sc_mcu7t5v0__and3_1 A1 A2 A3 Z VDD VSS
.ends

* Black-box entry subcircuit for gf180mcu_fd_sc_mcu7t5v0__dlyb_1 abstract view
.subckt gf180mcu_fd_sc_mcu7t5v0__dlyb_1 I Z VDD VSS
.ends

* Black-box entry subcircuit for gf180mcu_fd_sc_mcu7t5v0__or3_1 abstract view
.subckt gf180mcu_fd_sc_mcu7t5v0__or3_1 A1 A2 A3 Z VDD VSS
.ends

* Black-box entry subcircuit for gf180mcu_fd_sc_mcu7t5v0__buf_1 abstract view
.subckt gf180mcu_fd_sc_mcu7t5v0__buf_1 I Z VDD VSS
.ends

* Black-box entry subcircuit for gf180mcu_fd_sc_mcu7t5v0__aoi221_2 abstract view
.subckt gf180mcu_fd_sc_mcu7t5v0__aoi221_2 A1 A2 B1 B2 C ZN VDD VSS
.ends

* Black-box entry subcircuit for gf180mcu_fd_sc_mcu7t5v0__oai31_1 abstract view
.subckt gf180mcu_fd_sc_mcu7t5v0__oai31_1 A1 A2 A3 B ZN VDD VSS
.ends

* Black-box entry subcircuit for gf180mcu_fd_sc_mcu7t5v0__dlyc_1 abstract view
.subckt gf180mcu_fd_sc_mcu7t5v0__dlyc_1 I Z VDD VSS
.ends

* Black-box entry subcircuit for gf180mcu_fd_sc_mcu7t5v0__dlyd_1 abstract view
.subckt gf180mcu_fd_sc_mcu7t5v0__dlyd_1 I Z VDD VSS
.ends

* Black-box entry subcircuit for gf180mcu_fd_sc_mcu7t5v0__aoi22_1 abstract view
.subckt gf180mcu_fd_sc_mcu7t5v0__aoi22_1 A1 A2 B1 B2 ZN VDD VSS
.ends

* Black-box entry subcircuit for gf180mcu_fd_sc_mcu7t5v0__nand4_1 abstract view
.subckt gf180mcu_fd_sc_mcu7t5v0__nand4_1 A1 A2 A3 A4 ZN VDD VSS
.ends

* Black-box entry subcircuit for gf180mcu_fd_sc_mcu7t5v0__oai211_1 abstract view
.subckt gf180mcu_fd_sc_mcu7t5v0__oai211_1 A1 A2 B C ZN VDD VSS
.ends

* Black-box entry subcircuit for gf180mcu_fd_sc_mcu7t5v0__nand3_1 abstract view
.subckt gf180mcu_fd_sc_mcu7t5v0__nand3_1 A1 A2 A3 ZN VDD VSS
.ends

* Black-box entry subcircuit for gf180mcu_fd_sc_mcu7t5v0__aoi211_2 abstract view
.subckt gf180mcu_fd_sc_mcu7t5v0__aoi211_2 A1 A2 B C ZN VDD VSS
.ends

* Black-box entry subcircuit for gf180mcu_fd_sc_mcu7t5v0__nor3_1 abstract view
.subckt gf180mcu_fd_sc_mcu7t5v0__nor3_1 A1 A2 A3 ZN VDD VSS
.ends

.subckt macro_decap8 io_active io_in[0] io_in[10] io_in[11] io_in[12] io_in[13] io_in[14]
+ io_in[15] io_in[16] io_in[17] io_in[18] io_in[19] io_in[1] io_in[20] io_in[21] io_in[22]
+ io_in[23] io_in[24] io_in[25] io_in[26] io_in[27] io_in[28] io_in[29] io_in[2] io_in[30]
+ io_in[31] io_in[32] io_in[33] io_in[34] io_in[35] io_in[36] io_in[37] io_in[3] io_in[4]
+ io_in[5] io_in[6] io_in[7] io_in[8] io_in[9] io_oeb[0] io_oeb[10] io_oeb[11] io_oeb[12]
+ io_oeb[13] io_oeb[14] io_oeb[15] io_oeb[16] io_oeb[17] io_oeb[18] io_oeb[19] io_oeb[1]
+ io_oeb[20] io_oeb[21] io_oeb[22] io_oeb[23] io_oeb[24] io_oeb[25] io_oeb[26] io_oeb[27]
+ io_oeb[28] io_oeb[29] io_oeb[2] io_oeb[30] io_oeb[31] io_oeb[32] io_oeb[33] io_oeb[34]
+ io_oeb[35] io_oeb[36] io_oeb[37] io_oeb[3] io_oeb[4] io_oeb[5] io_oeb[6] io_oeb[7]
+ io_oeb[8] io_oeb[9] io_out[0] io_out[10] io_out[11] io_out[12] io_out[13] io_out[14]
+ io_out[15] io_out[16] io_out[17] io_out[18] io_out[19] io_out[1] io_out[20] io_out[21]
+ io_out[22] io_out[23] io_out[24] io_out[25] io_out[26] io_out[27] io_out[28] io_out[29]
+ io_out[2] io_out[30] io_out[31] io_out[32] io_out[33] io_out[34] io_out[35] io_out[36]
+ io_out[37] io_out[3] io_out[4] io_out[5] io_out[6] io_out[7] io_out[8] io_out[9]
+ irq[0] irq[1] irq[2] la_data_in[0] la_data_in[10] la_data_in[11] la_data_in[12]
+ la_data_in[13] la_data_in[14] la_data_in[15] la_data_in[16] la_data_in[17] la_data_in[18]
+ la_data_in[19] la_data_in[1] la_data_in[20] la_data_in[21] la_data_in[22] la_data_in[23]
+ la_data_in[24] la_data_in[25] la_data_in[26] la_data_in[27] la_data_in[28] la_data_in[29]
+ la_data_in[2] la_data_in[30] la_data_in[31] la_data_in[32] la_data_in[33] la_data_in[34]
+ la_data_in[35] la_data_in[36] la_data_in[37] la_data_in[38] la_data_in[39] la_data_in[3]
+ la_data_in[40] la_data_in[41] la_data_in[42] la_data_in[43] la_data_in[44] la_data_in[45]
+ la_data_in[46] la_data_in[47] la_data_in[48] la_data_in[49] la_data_in[4] la_data_in[50]
+ la_data_in[51] la_data_in[52] la_data_in[53] la_data_in[54] la_data_in[55] la_data_in[56]
+ la_data_in[57] la_data_in[58] la_data_in[59] la_data_in[5] la_data_in[60] la_data_in[61]
+ la_data_in[62] la_data_in[63] la_data_in[6] la_data_in[7] la_data_in[8] la_data_in[9]
+ la_data_out[0] la_data_out[10] la_data_out[11] la_data_out[12] la_data_out[13] la_data_out[14]
+ la_data_out[15] la_data_out[16] la_data_out[17] la_data_out[18] la_data_out[19]
+ la_data_out[1] la_data_out[20] la_data_out[21] la_data_out[22] la_data_out[23] la_data_out[24]
+ la_data_out[25] la_data_out[26] la_data_out[27] la_data_out[28] la_data_out[29]
+ la_data_out[2] la_data_out[30] la_data_out[31] la_data_out[32] la_data_out[33] la_data_out[34]
+ la_data_out[35] la_data_out[36] la_data_out[37] la_data_out[38] la_data_out[39]
+ la_data_out[3] la_data_out[40] la_data_out[41] la_data_out[42] la_data_out[43] la_data_out[44]
+ la_data_out[45] la_data_out[46] la_data_out[47] la_data_out[48] la_data_out[49]
+ la_data_out[4] la_data_out[50] la_data_out[51] la_data_out[52] la_data_out[53] la_data_out[54]
+ la_data_out[55] la_data_out[56] la_data_out[57] la_data_out[58] la_data_out[59]
+ la_data_out[5] la_data_out[60] la_data_out[61] la_data_out[62] la_data_out[63] la_data_out[6]
+ la_data_out[7] la_data_out[8] la_data_out[9] la_oenb[0] la_oenb[10] la_oenb[11]
+ la_oenb[12] la_oenb[13] la_oenb[14] la_oenb[15] la_oenb[16] la_oenb[17] la_oenb[18]
+ la_oenb[19] la_oenb[1] la_oenb[20] la_oenb[21] la_oenb[22] la_oenb[23] la_oenb[24]
+ la_oenb[25] la_oenb[26] la_oenb[27] la_oenb[28] la_oenb[29] la_oenb[2] la_oenb[30]
+ la_oenb[31] la_oenb[32] la_oenb[33] la_oenb[34] la_oenb[35] la_oenb[36] la_oenb[37]
+ la_oenb[38] la_oenb[39] la_oenb[3] la_oenb[40] la_oenb[41] la_oenb[42] la_oenb[43]
+ la_oenb[44] la_oenb[45] la_oenb[46] la_oenb[47] la_oenb[48] la_oenb[49] la_oenb[4]
+ la_oenb[50] la_oenb[51] la_oenb[52] la_oenb[53] la_oenb[54] la_oenb[55] la_oenb[56]
+ la_oenb[57] la_oenb[58] la_oenb[59] la_oenb[5] la_oenb[60] la_oenb[61] la_oenb[62]
+ la_oenb[63] la_oenb[6] la_oenb[7] la_oenb[8] la_oenb[9] vdd vss wb_clk_i wb_rst_i
+ wbs_ack_o wbs_adr_i[0] wbs_adr_i[10] wbs_adr_i[11] wbs_adr_i[12] wbs_adr_i[13] wbs_adr_i[14]
+ wbs_adr_i[15] wbs_adr_i[16] wbs_adr_i[17] wbs_adr_i[18] wbs_adr_i[19] wbs_adr_i[1]
+ wbs_adr_i[20] wbs_adr_i[21] wbs_adr_i[22] wbs_adr_i[23] wbs_adr_i[24] wbs_adr_i[25]
+ wbs_adr_i[26] wbs_adr_i[27] wbs_adr_i[28] wbs_adr_i[29] wbs_adr_i[2] wbs_adr_i[30]
+ wbs_adr_i[31] wbs_adr_i[3] wbs_adr_i[4] wbs_adr_i[5] wbs_adr_i[6] wbs_adr_i[7] wbs_adr_i[8]
+ wbs_adr_i[9] wbs_cyc_i wbs_dat_i[0] wbs_dat_i[10] wbs_dat_i[11] wbs_dat_i[12] wbs_dat_i[13]
+ wbs_dat_i[14] wbs_dat_i[15] wbs_dat_i[16] wbs_dat_i[17] wbs_dat_i[18] wbs_dat_i[19]
+ wbs_dat_i[1] wbs_dat_i[20] wbs_dat_i[21] wbs_dat_i[22] wbs_dat_i[23] wbs_dat_i[24]
+ wbs_dat_i[25] wbs_dat_i[26] wbs_dat_i[27] wbs_dat_i[28] wbs_dat_i[29] wbs_dat_i[2]
+ wbs_dat_i[30] wbs_dat_i[31] wbs_dat_i[3] wbs_dat_i[4] wbs_dat_i[5] wbs_dat_i[6]
+ wbs_dat_i[7] wbs_dat_i[8] wbs_dat_i[9] wbs_dat_o[0] wbs_dat_o[10] wbs_dat_o[11]
+ wbs_dat_o[12] wbs_dat_o[13] wbs_dat_o[14] wbs_dat_o[15] wbs_dat_o[16] wbs_dat_o[17]
+ wbs_dat_o[18] wbs_dat_o[19] wbs_dat_o[1] wbs_dat_o[20] wbs_dat_o[21] wbs_dat_o[22]
+ wbs_dat_o[23] wbs_dat_o[24] wbs_dat_o[25] wbs_dat_o[26] wbs_dat_o[27] wbs_dat_o[28]
+ wbs_dat_o[29] wbs_dat_o[2] wbs_dat_o[30] wbs_dat_o[31] wbs_dat_o[3] wbs_dat_o[4]
+ wbs_dat_o[5] wbs_dat_o[6] wbs_dat_o[7] wbs_dat_o[8] wbs_dat_o[9] wbs_sel_i[0] wbs_sel_i[1]
+ wbs_sel_i[2] wbs_sel_i[3] wbs_stb_i wbs_we_i
XFILLER_82_534 vdd vss gf180mcu_fd_sc_mcu7t5v0__fill_64
XFILLER_54_247 vdd vss gf180mcu_fd_sc_mcu7t5v0__fill_1
XTAP_199 vdd vss gf180mcu_fd_sc_mcu7t5v0__filltie
XTAP_188 vdd vss gf180mcu_fd_sc_mcu7t5v0__filltie
XFILLER_27_428 vdd vss gf180mcu_fd_sc_mcu7t5v0__fill_64
XFILLER_23_634 vdd vss gf180mcu_fd_sc_mcu7t5v0__fill_4
XFILLER_2_527 vdd vss gf180mcu_fd_sc_mcu7t5v0__fill_4
XFILLER_89_144 vdd vss gf180mcu_fd_sc_mcu7t5v0__fill_64
XFILLER_85_350 vdd vss gf180mcu_fd_sc_mcu7t5v0__fill_2
XFILLER_58_531 vdd vss gf180mcu_fd_sc_mcu7t5v0__fill_1
XFILLER_93_69 vdd vss gf180mcu_fd_sc_mcu7t5v0__fill_1
XFILLER_93_25 vdd vss gf180mcu_fd_sc_mcu7t5v0__fill_4
XFILLER_73_567 vdd vss gf180mcu_fd_sc_mcu7t5v0__fill_1
XFILLER_9_137 vdd vss gf180mcu_fd_sc_mcu7t5v0__fill_4
XFILLER_13_144 vdd vss gf180mcu_fd_sc_mcu7t5v0__fill_64
XFILLER_5_354 vdd vss gf180mcu_fd_sc_mcu7t5v0__fill_1
XFILLER_67_70 vdd vss gf180mcu_fd_sc_mcu7t5v0__fill_1
XFILLER_64_534 vdd vss gf180mcu_fd_sc_mcu7t5v0__fill_64
XFILLER_36_247 vdd vss gf180mcu_fd_sc_mcu7t5v0__fill_1
XFILLER_91_364 vdd vss gf180mcu_fd_sc_mcu7t5v0__fill_4
XFILLER_80_2 vdd vss gf180mcu_fd_sc_mcu7t5v0__fill_32
XFILLER_67_350 vdd vss gf180mcu_fd_sc_mcu7t5v0__fill_4
XANTENNA__249__I _054_ vdd vss gf180mcu_fd_sc_mcu7t5v0__antenna
XFILLER_55_567 vdd vss gf180mcu_fd_sc_mcu7t5v0__fill_1
XFILLER_50_250 vdd vss gf180mcu_fd_sc_mcu7t5v0__fill_64
XFILLER_93_629 vdd vss gf180mcu_fd_sc_mcu7t5v0__fill_1
XFILLER_92_139 vdd vss gf180mcu_fd_sc_mcu7t5v0__fill_2
XFILLER_46_534 vdd vss gf180mcu_fd_sc_mcu7t5v0__fill_64
XFILLER_37_73 vdd vss gf180mcu_fd_sc_mcu7t5v0__fill_64
XFILLER_18_247 vdd vss gf180mcu_fd_sc_mcu7t5v0__fill_1
XFILLER_41_283 vdd vss gf180mcu_fd_sc_mcu7t5v0__fill_1
XFILLER_49_350 vdd vss gf180mcu_fd_sc_mcu7t5v0__fill_4
XFILLER_92_673 vdd vss gf180mcu_fd_sc_mcu7t5v0__fill_1
XFILLER_77_681 vdd vss gf180mcu_fd_sc_mcu7t5v0__fill_4
XFILLER_37_567 vdd vss gf180mcu_fd_sc_mcu7t5v0__fill_1
XFILLER_32_250 vdd vss gf180mcu_fd_sc_mcu7t5v0__fill_64
XFILLER_20_456 vdd vss gf180mcu_fd_sc_mcu7t5v0__fill_4
XFILLER_87_401 vdd vss gf180mcu_fd_sc_mcu7t5v0__fill_2
XFILLER_87_478 vdd vss gf180mcu_fd_sc_mcu7t5v0__fill_1
XFILLER_87_467 vdd vss gf180mcu_fd_sc_mcu7t5v0__fill_1
XFILLER_87_423 vdd vss gf180mcu_fd_sc_mcu7t5v0__fill_2
XFILLER_28_534 vdd vss gf180mcu_fd_sc_mcu7t5v0__fill_64
X_200_ _072_ _002_ net3 _015_ vdd vss gf180mcu_fd_sc_mcu7t5v0__oai21_1
XFILLER_90_37 vdd vss gf180mcu_fd_sc_mcu7t5v0__fill_64
XFILLER_83_673 vdd vss gf180mcu_fd_sc_mcu7t5v0__fillcap_8
XFILLER_82_172 vdd vss gf180mcu_fd_sc_mcu7t5v0__fill_4
XFILLER_70_389 vdd vss gf180mcu_fd_sc_mcu7t5v0__fill_1
XFILLER_51_570 vdd vss gf180mcu_fd_sc_mcu7t5v0__fill_64
XFILLER_23_283 vdd vss gf180mcu_fd_sc_mcu7t5v0__fill_1
X_131_ net3 _071_ vdd vss gf180mcu_fd_sc_mcu7t5v0__clkinv_1
XFILLER_78_456 vdd vss gf180mcu_fd_sc_mcu7t5v0__fill_4
XFILLER_2_176 vdd vss gf180mcu_fd_sc_mcu7t5v0__fill_1
XFILLER_93_437 vdd vss gf180mcu_fd_sc_mcu7t5v0__fill_4
XFILLER_74_684 vdd vss gf180mcu_fd_sc_mcu7t5v0__fill_4
XFILLER_74_673 vdd vss gf180mcu_fd_sc_mcu7t5v0__fill_1
XFILLER_59_681 vdd vss gf180mcu_fd_sc_mcu7t5v0__fill_4
XFILLER_0_57 vdd vss gf180mcu_fd_sc_mcu7t5v0__fill_2
XFILLER_19_567 vdd vss gf180mcu_fd_sc_mcu7t5v0__fill_1
XFILLER_9_66 vdd vss gf180mcu_fd_sc_mcu7t5v0__fill_4
XFILLER_14_250 vdd vss gf180mcu_fd_sc_mcu7t5v0__fill_64
XFILLER_43_2 vdd vss gf180mcu_fd_sc_mcu7t5v0__fill_64
XFILLER_6_460 vdd vss gf180mcu_fd_sc_mcu7t5v0__fill_1
XFILLER_84_437 vdd vss gf180mcu_fd_sc_mcu7t5v0__fill_16
XFILLER_80_676 vdd vss gf180mcu_fd_sc_mcu7t5v0__fillcap_8
XFILLER_65_673 vdd vss gf180mcu_fd_sc_mcu7t5v0__fillcap_8
XFILLER_64_172 vdd vss gf180mcu_fd_sc_mcu7t5v0__fill_4
XFILLER_52_389 vdd vss gf180mcu_fd_sc_mcu7t5v0__fill_1
XFILLER_33_570 vdd vss gf180mcu_fd_sc_mcu7t5v0__fill_64
XANTENNA__162__A2 net21 vdd vss gf180mcu_fd_sc_mcu7t5v0__antenna
XFILLER_0_614 vdd vss gf180mcu_fd_sc_mcu7t5v0__fill_2
XFILLER_90_429 vdd vss gf180mcu_fd_sc_mcu7t5v0__fill_2
XFILLER_87_286 vdd vss gf180mcu_fd_sc_mcu7t5v0__fill_4
XFILLER_83_492 vdd vss gf180mcu_fd_sc_mcu7t5v0__fill_4
XFILLER_56_684 vdd vss gf180mcu_fd_sc_mcu7t5v0__fill_4
XFILLER_56_673 vdd vss gf180mcu_fd_sc_mcu7t5v0__fill_1
XFILLER_71_687 vdd vss gf180mcu_fd_sc_mcu7t5v0__fill_1
XTAP_507 vdd vss gf180mcu_fd_sc_mcu7t5v0__filltie
XFILLER_7_279 vdd vss gf180mcu_fd_sc_mcu7t5v0__fill_4
XFILLER_11_286 vdd vss gf180mcu_fd_sc_mcu7t5v0__fill_64
XFILLER_93_212 vdd vss gf180mcu_fd_sc_mcu7t5v0__fill_2
XTAP_529 vdd vss gf180mcu_fd_sc_mcu7t5v0__filltie
XTAP_518 vdd vss gf180mcu_fd_sc_mcu7t5v0__filltie
XFILLER_3_496 vdd vss gf180mcu_fd_sc_mcu7t5v0__fill_1
XFILLER_75_70 vdd vss gf180mcu_fd_sc_mcu7t5v0__fill_1
XFILLER_62_676 vdd vss gf180mcu_fd_sc_mcu7t5v0__fillcap_8
XFILLER_47_673 vdd vss gf180mcu_fd_sc_mcu7t5v0__fillcap_8
XFILLER_46_172 vdd vss gf180mcu_fd_sc_mcu7t5v0__fill_4
XFILLER_34_389 vdd vss gf180mcu_fd_sc_mcu7t5v0__fill_1
XFILLER_15_570 vdd vss gf180mcu_fd_sc_mcu7t5v0__fill_64
Xmacro_decap8_125 io_oeb[27] vdd vss gf180mcu_fd_sc_mcu7t5v0__tiel
Xmacro_decap8_147 io_out[26] vdd vss gf180mcu_fd_sc_mcu7t5v0__tiel
Xmacro_decap8_158 io_out[37] vdd vss gf180mcu_fd_sc_mcu7t5v0__tiel
Xmacro_decap8_103 io_oeb[5] vdd vss gf180mcu_fd_sc_mcu7t5v0__tiel
Xmacro_decap8_136 io_out[1] vdd vss gf180mcu_fd_sc_mcu7t5v0__tiel
Xmacro_decap8_114 io_oeb[16] vdd vss gf180mcu_fd_sc_mcu7t5v0__tiel
XFILLER_69_286 vdd vss gf180mcu_fd_sc_mcu7t5v0__fill_64
XFILLER_65_492 vdd vss gf180mcu_fd_sc_mcu7t5v0__fill_4
XFILLER_38_684 vdd vss gf180mcu_fd_sc_mcu7t5v0__fill_4
XFILLER_38_673 vdd vss gf180mcu_fd_sc_mcu7t5v0__fill_1
Xmacro_decap8_169 la_data_out[7] vdd vss gf180mcu_fd_sc_mcu7t5v0__tiel
XFILLER_53_687 vdd vss gf180mcu_fd_sc_mcu7t5v0__fill_1
XANTENNA__135__A2 _073_ vdd vss gf180mcu_fd_sc_mcu7t5v0__antenna
XFILLER_75_212 vdd vss gf180mcu_fd_sc_mcu7t5v0__fill_1
XFILLER_0_433 vdd vss gf180mcu_fd_sc_mcu7t5v0__fill_2
XFILLER_0_422 vdd vss gf180mcu_fd_sc_mcu7t5v0__fill_1
XFILLER_44_676 vdd vss gf180mcu_fd_sc_mcu7t5v0__fillcap_8
XFILLER_45_73 vdd vss gf180mcu_fd_sc_mcu7t5v0__fill_64
XFILLER_16_389 vdd vss gf180mcu_fd_sc_mcu7t5v0__fill_1
XFILLER_28_172 vdd vss gf180mcu_fd_sc_mcu7t5v0__fill_4
XFILLER_29_673 vdd vss gf180mcu_fd_sc_mcu7t5v0__fillcap_8
XFILLER_6_34 vdd vss gf180mcu_fd_sc_mcu7t5v0__fill_1
XTAP_304 vdd vss gf180mcu_fd_sc_mcu7t5v0__filltie
XTAP_315 vdd vss gf180mcu_fd_sc_mcu7t5v0__filltie
XTAP_326 vdd vss gf180mcu_fd_sc_mcu7t5v0__filltie
XTAP_337 vdd vss gf180mcu_fd_sc_mcu7t5v0__filltie
XTAP_348 vdd vss gf180mcu_fd_sc_mcu7t5v0__filltie
XFILLER_81_215 vdd vss gf180mcu_fd_sc_mcu7t5v0__fill_64
XFILLER_47_492 vdd vss gf180mcu_fd_sc_mcu7t5v0__fill_4
XTAP_359 vdd vss gf180mcu_fd_sc_mcu7t5v0__filltie
XFILLER_50_602 vdd vss gf180mcu_fd_sc_mcu7t5v0__fill_1
XFILLER_35_687 vdd vss gf180mcu_fd_sc_mcu7t5v0__fill_1
XFILLER_30_392 vdd vss gf180mcu_fd_sc_mcu7t5v0__fill_64
XFILLER_89_326 vdd vss gf180mcu_fd_sc_mcu7t5v0__fill_2
XTAP_893 vdd vss gf180mcu_fd_sc_mcu7t5v0__filltie
XTAP_882 vdd vss gf180mcu_fd_sc_mcu7t5v0__filltie
XTAP_871 vdd vss gf180mcu_fd_sc_mcu7t5v0__filltie
XTAP_860 vdd vss gf180mcu_fd_sc_mcu7t5v0__filltie
XFILLER_57_212 vdd vss gf180mcu_fd_sc_mcu7t5v0__fill_1
XFILLER_40_101 vdd vss gf180mcu_fd_sc_mcu7t5v0__fill_4
XFILLER_26_676 vdd vss gf180mcu_fd_sc_mcu7t5v0__fillcap_8
Xoutput31 net31 io_out[4] vdd vss gf180mcu_fd_sc_mcu7t5v0__clkbuf_3
XFILLER_88_392 vdd vss gf180mcu_fd_sc_mcu7t5v0__fill_1
XFILLER_76_598 vdd vss gf180mcu_fd_sc_mcu7t5v0__fill_4
XFILLER_63_215 vdd vss gf180mcu_fd_sc_mcu7t5v0__fill_64
XFILLER_0_296 vdd vss gf180mcu_fd_sc_mcu7t5v0__fill_2
XPHY_170 vdd vss gf180mcu_fd_sc_mcu7t5v0__endcap
XFILLER_32_602 vdd vss gf180mcu_fd_sc_mcu7t5v0__fill_1
XFILLER_17_687 vdd vss gf180mcu_fd_sc_mcu7t5v0__fill_1
XFILLER_29_492 vdd vss gf180mcu_fd_sc_mcu7t5v0__fill_4
XPHY_181 vdd vss gf180mcu_fd_sc_mcu7t5v0__endcap
XFILLER_8_385 vdd vss gf180mcu_fd_sc_mcu7t5v0__fill_4
XFILLER_12_392 vdd vss gf180mcu_fd_sc_mcu7t5v0__fill_64
XFILLER_86_329 vdd vss gf180mcu_fd_sc_mcu7t5v0__fill_2
XFILLER_86_318 vdd vss gf180mcu_fd_sc_mcu7t5v0__fill_1
XFILLER_39_212 vdd vss gf180mcu_fd_sc_mcu7t5v0__fill_1
XTAP_189 vdd vss gf180mcu_fd_sc_mcu7t5v0__filltie
XFILLER_10_318 vdd vss gf180mcu_fd_sc_mcu7t5v0__fill_1
XFILLER_22_101 vdd vss gf180mcu_fd_sc_mcu7t5v0__fill_4
XFILLER_93_37 vdd vss gf180mcu_fd_sc_mcu7t5v0__fill_1
XFILLER_85_384 vdd vss gf180mcu_fd_sc_mcu7t5v0__fill_2
XFILLER_85_362 vdd vss gf180mcu_fd_sc_mcu7t5v0__fill_4
XFILLER_58_598 vdd vss gf180mcu_fd_sc_mcu7t5v0__fill_4
XTAP_690 vdd vss gf180mcu_fd_sc_mcu7t5v0__filltie
XFILLER_45_215 vdd vss gf180mcu_fd_sc_mcu7t5v0__fill_64
XFILLER_41_421 vdd vss gf180mcu_fd_sc_mcu7t5v0__fill_4
XFILLER_14_602 vdd vss gf180mcu_fd_sc_mcu7t5v0__fill_1
XANTENNA__180__I _117_ vdd vss gf180mcu_fd_sc_mcu7t5v0__antenna
XFILLER_68_318 vdd vss gf180mcu_fd_sc_mcu7t5v0__fill_1
XFILLER_91_354 vdd vss gf180mcu_fd_sc_mcu7t5v0__fill_1
XFILLER_91_310 vdd vss gf180mcu_fd_sc_mcu7t5v0__fill_2
XFILLER_83_70 vdd vss gf180mcu_fd_sc_mcu7t5v0__fill_1
XFILLER_73_2 vdd vss gf180mcu_fd_sc_mcu7t5v0__fill_64
XFILLER_20_605 vdd vss gf180mcu_fd_sc_mcu7t5v0__fill_64
XFILLER_87_638 vdd vss gf180mcu_fd_sc_mcu7t5v0__fill_1
XFILLER_27_215 vdd vss gf180mcu_fd_sc_mcu7t5v0__fill_64
XFILLER_82_321 vdd vss gf180mcu_fd_sc_mcu7t5v0__fill_64
XFILLER_70_527 vdd vss gf180mcu_fd_sc_mcu7t5v0__fill_4
XFILLER_23_421 vdd vss gf180mcu_fd_sc_mcu7t5v0__fill_4
XFILLER_6_108 vdd vss gf180mcu_fd_sc_mcu7t5v0__fill_64
XFILLER_11_638 vdd vss gf180mcu_fd_sc_mcu7t5v0__fill_1
XFILLER_88_37 vdd vss gf180mcu_fd_sc_mcu7t5v0__fill_64
XFILLER_78_605 vdd vss gf180mcu_fd_sc_mcu7t5v0__fill_64
XFILLER_77_137 vdd vss gf180mcu_fd_sc_mcu7t5v0__fill_4
XFILLER_2_314 vdd vss gf180mcu_fd_sc_mcu7t5v0__fill_4
XFILLER_73_354 vdd vss gf180mcu_fd_sc_mcu7t5v0__fill_1
XFILLER_53_73 vdd vss gf180mcu_fd_sc_mcu7t5v0__fill_64
XFILLER_5_141 vdd vss gf180mcu_fd_sc_mcu7t5v0__fill_1
XANTENNA__238__A1 net17 vdd vss gf180mcu_fd_sc_mcu7t5v0__antenna
XFILLER_69_638 vdd vss gf180mcu_fd_sc_mcu7t5v0__fill_1
XFILLER_64_321 vdd vss gf180mcu_fd_sc_mcu7t5v0__fill_64
XFILLER_52_527 vdd vss gf180mcu_fd_sc_mcu7t5v0__fill_4
XFILLER_59_137 vdd vss gf180mcu_fd_sc_mcu7t5v0__fill_4
XANTENNA__229__A1 _033_ vdd vss gf180mcu_fd_sc_mcu7t5v0__antenna
XFILLER_83_685 vdd vss gf180mcu_fd_sc_mcu7t5v0__fill_2
XFILLER_83_641 vdd vss gf180mcu_fd_sc_mcu7t5v0__fill_32
XFILLER_55_354 vdd vss gf180mcu_fd_sc_mcu7t5v0__fill_1
X_130_ net4 _069_ _070_ vdd vss gf180mcu_fd_sc_mcu7t5v0__xor2_1
XFILLER_3_634 vdd vss gf180mcu_fd_sc_mcu7t5v0__fill_4
XFILLER_7_428 vdd vss gf180mcu_fd_sc_mcu7t5v0__fill_64
XFILLER_3_2 vdd vss gf180mcu_fd_sc_mcu7t5v0__fill_64
XFILLER_61_357 vdd vss gf180mcu_fd_sc_mcu7t5v0__fill_64
XFILLER_46_321 vdd vss gf180mcu_fd_sc_mcu7t5v0__fill_64
XFILLER_34_527 vdd vss gf180mcu_fd_sc_mcu7t5v0__fill_4
XFILLER_0_69 vdd vss gf180mcu_fd_sc_mcu7t5v0__fill_1
XFILLER_36_2 vdd vss gf180mcu_fd_sc_mcu7t5v0__fill_32
XFILLER_84_405 vdd vss gf180mcu_fd_sc_mcu7t5v0__fill_32
XFILLER_65_685 vdd vss gf180mcu_fd_sc_mcu7t5v0__fill_2
XFILLER_65_641 vdd vss gf180mcu_fd_sc_mcu7t5v0__fill_32
XFILLER_37_354 vdd vss gf180mcu_fd_sc_mcu7t5v0__fill_1
XFILLER_92_493 vdd vss gf180mcu_fd_sc_mcu7t5v0__fill_2
XFILLER_20_243 vdd vss gf180mcu_fd_sc_mcu7t5v0__fill_4
XFILLER_0_626 vdd vss gf180mcu_fd_sc_mcu7t5v0__fill_4
XFILLER_0_637 vdd vss gf180mcu_fd_sc_mcu7t5v0__fill_2
XFILLER_43_357 vdd vss gf180mcu_fd_sc_mcu7t5v0__fill_64
XFILLER_16_527 vdd vss gf180mcu_fd_sc_mcu7t5v0__fill_4
XFILLER_28_321 vdd vss gf180mcu_fd_sc_mcu7t5v0__fill_64
XFILLER_70_176 vdd vss gf180mcu_fd_sc_mcu7t5v0__fill_1
XTAP_519 vdd vss gf180mcu_fd_sc_mcu7t5v0__filltie
XTAP_508 vdd vss gf180mcu_fd_sc_mcu7t5v0__filltie
XFILLER_93_279 vdd vss gf180mcu_fd_sc_mcu7t5v0__fill_1
XFILLER_78_243 vdd vss gf180mcu_fd_sc_mcu7t5v0__fill_4
XFILLER_74_460 vdd vss gf180mcu_fd_sc_mcu7t5v0__fill_1
XFILLER_47_641 vdd vss gf180mcu_fd_sc_mcu7t5v0__fill_32
XFILLER_19_354 vdd vss gf180mcu_fd_sc_mcu7t5v0__fill_1
XFILLER_91_70 vdd vss gf180mcu_fd_sc_mcu7t5v0__fill_1
XFILLER_47_685 vdd vss gf180mcu_fd_sc_mcu7t5v0__fill_2
Xmacro_decap8_137 io_out[2] vdd vss gf180mcu_fd_sc_mcu7t5v0__tiel
Xmacro_decap8_104 io_oeb[6] vdd vss gf180mcu_fd_sc_mcu7t5v0__tiel
Xmacro_decap8_148 io_out[27] vdd vss gf180mcu_fd_sc_mcu7t5v0__tiel
Xmacro_decap8_126 io_oeb[28] vdd vss gf180mcu_fd_sc_mcu7t5v0__tiel
Xmacro_decap8_115 io_oeb[17] vdd vss gf180mcu_fd_sc_mcu7t5v0__tiel
Xmacro_decap8_159 irq[0] vdd vss gf180mcu_fd_sc_mcu7t5v0__tiel
XFILLER_25_357 vdd vss gf180mcu_fd_sc_mcu7t5v0__fill_64
XFILLER_80_463 vdd vss gf180mcu_fd_sc_mcu7t5v0__fill_64
XFILLER_52_176 vdd vss gf180mcu_fd_sc_mcu7t5v0__fill_1
XFILLER_21_563 vdd vss gf180mcu_fd_sc_mcu7t5v0__fill_4
XFILLER_75_279 vdd vss gf180mcu_fd_sc_mcu7t5v0__fill_4
XFILLER_0_445 vdd vss gf180mcu_fd_sc_mcu7t5v0__fill_2
XFILLER_29_641 vdd vss gf180mcu_fd_sc_mcu7t5v0__fill_32
XFILLER_71_496 vdd vss gf180mcu_fd_sc_mcu7t5v0__fill_1
XFILLER_56_460 vdd vss gf180mcu_fd_sc_mcu7t5v0__fill_1
XFILLER_29_685 vdd vss gf180mcu_fd_sc_mcu7t5v0__fill_2
XFILLER_61_73 vdd vss gf180mcu_fd_sc_mcu7t5v0__fill_64
XFILLER_8_534 vdd vss gf180mcu_fd_sc_mcu7t5v0__fill_64
XFILLER_79_563 vdd vss gf180mcu_fd_sc_mcu7t5v0__fill_4
XFILLER_3_283 vdd vss gf180mcu_fd_sc_mcu7t5v0__fill_1
XTAP_305 vdd vss gf180mcu_fd_sc_mcu7t5v0__filltie
XTAP_316 vdd vss gf180mcu_fd_sc_mcu7t5v0__filltie
XTAP_327 vdd vss gf180mcu_fd_sc_mcu7t5v0__filltie
XTAP_338 vdd vss gf180mcu_fd_sc_mcu7t5v0__filltie
XTAP_349 vdd vss gf180mcu_fd_sc_mcu7t5v0__filltie
XFILLER_62_463 vdd vss gf180mcu_fd_sc_mcu7t5v0__fill_64
XFILLER_50_669 vdd vss gf180mcu_fd_sc_mcu7t5v0__fill_4
XFILLER_34_176 vdd vss gf180mcu_fd_sc_mcu7t5v0__fill_1
XTAP_894 vdd vss gf180mcu_fd_sc_mcu7t5v0__filltie
XTAP_883 vdd vss gf180mcu_fd_sc_mcu7t5v0__filltie
XTAP_872 vdd vss gf180mcu_fd_sc_mcu7t5v0__filltie
XTAP_861 vdd vss gf180mcu_fd_sc_mcu7t5v0__filltie
XTAP_850 vdd vss gf180mcu_fd_sc_mcu7t5v0__filltie
XANTENNA_input11_I io_in[27] vdd vss gf180mcu_fd_sc_mcu7t5v0__antenna
XFILLER_57_279 vdd vss gf180mcu_fd_sc_mcu7t5v0__fill_4
XFILLER_53_496 vdd vss gf180mcu_fd_sc_mcu7t5v0__fill_1
XFILLER_38_460 vdd vss gf180mcu_fd_sc_mcu7t5v0__fill_1
XFILLER_15_66 vdd vss gf180mcu_fd_sc_mcu7t5v0__fill_4
XFILLER_40_179 vdd vss gf180mcu_fd_sc_mcu7t5v0__fill_64
Xoutput32 net32 io_out[5] vdd vss gf180mcu_fd_sc_mcu7t5v0__clkbuf_3
XFILLER_0_220 vdd vss gf180mcu_fd_sc_mcu7t5v0__fill_2
XFILLER_91_525 vdd vss gf180mcu_fd_sc_mcu7t5v0__fill_2
XPHY_182 vdd vss gf180mcu_fd_sc_mcu7t5v0__endcap
XPHY_171 vdd vss gf180mcu_fd_sc_mcu7t5v0__endcap
XPHY_160 vdd vss gf180mcu_fd_sc_mcu7t5v0__endcap
XFILLER_44_463 vdd vss gf180mcu_fd_sc_mcu7t5v0__fill_64
XFILLER_32_669 vdd vss gf180mcu_fd_sc_mcu7t5v0__fill_4
XFILLER_16_176 vdd vss gf180mcu_fd_sc_mcu7t5v0__fill_1
XANTENNA_input3_I io_in[19] vdd vss gf180mcu_fd_sc_mcu7t5v0__antenna
XFILLER_39_279 vdd vss gf180mcu_fd_sc_mcu7t5v0__fill_4
XFILLER_35_496 vdd vss gf180mcu_fd_sc_mcu7t5v0__fill_1
XFILLER_22_179 vdd vss gf180mcu_fd_sc_mcu7t5v0__fill_64
XFILLER_85_396 vdd vss gf180mcu_fd_sc_mcu7t5v0__fill_4
XFILLER_85_374 vdd vss gf180mcu_fd_sc_mcu7t5v0__fill_2
XTAP_691 vdd vss gf180mcu_fd_sc_mcu7t5v0__filltie
XTAP_680 vdd vss gf180mcu_fd_sc_mcu7t5v0__filltie
XFILLER_41_499 vdd vss gf180mcu_fd_sc_mcu7t5v0__fill_64
XFILLER_14_669 vdd vss gf180mcu_fd_sc_mcu7t5v0__fill_4
XFILLER_26_463 vdd vss gf180mcu_fd_sc_mcu7t5v0__fill_64
XFILLER_91_300 vdd vss gf180mcu_fd_sc_mcu7t5v0__fill_2
XFILLER_76_385 vdd vss gf180mcu_fd_sc_mcu7t5v0__fill_4
XFILLER_51_208 vdd vss gf180mcu_fd_sc_mcu7t5v0__fill_4
XFILLER_17_496 vdd vss gf180mcu_fd_sc_mcu7t5v0__fill_1
XFILLER_8_172 vdd vss gf180mcu_fd_sc_mcu7t5v0__fill_4
XFILLER_9_673 vdd vss gf180mcu_fd_sc_mcu7t5v0__fillcap_8
XFILLER_86_105 vdd vss gf180mcu_fd_sc_mcu7t5v0__fill_1
XFILLER_66_2 vdd vss gf180mcu_fd_sc_mcu7t5v0__fill_32
XFILLER_10_105 vdd vss gf180mcu_fd_sc_mcu7t5v0__fill_1
XFILLER_23_499 vdd vss gf180mcu_fd_sc_mcu7t5v0__fill_64
XFILLER_12_34 vdd vss gf180mcu_fd_sc_mcu7t5v0__fill_1
XANTENNA__247__A2 _038_ vdd vss gf180mcu_fd_sc_mcu7t5v0__antenna
XFILLER_92_108 vdd vss gf180mcu_fd_sc_mcu7t5v0__fill_1
XFILLER_58_385 vdd vss gf180mcu_fd_sc_mcu7t5v0__fill_4
XFILLER_33_208 vdd vss gf180mcu_fd_sc_mcu7t5v0__fill_4
XANTENNA__183__A1 _062_ vdd vss gf180mcu_fd_sc_mcu7t5v0__antenna
XFILLER_6_676 vdd vss gf180mcu_fd_sc_mcu7t5v0__fillcap_8
XFILLER_92_620 vdd vss gf180mcu_fd_sc_mcu7t5v0__fill_1
XFILLER_68_105 vdd vss gf180mcu_fd_sc_mcu7t5v0__fill_1
XFILLER_91_141 vdd vss gf180mcu_fd_sc_mcu7t5v0__fill_1
XFILLER_9_492 vdd vss gf180mcu_fd_sc_mcu7t5v0__fill_4
XFILLER_87_425 vdd vss gf180mcu_fd_sc_mcu7t5v0__fill_1
XANTENNA__229__A2 _038_ vdd vss gf180mcu_fd_sc_mcu7t5v0__antenna
XFILLER_74_108 vdd vss gf180mcu_fd_sc_mcu7t5v0__fill_64
XFILLER_70_314 vdd vss gf180mcu_fd_sc_mcu7t5v0__fill_4
XFILLER_15_208 vdd vss gf180mcu_fd_sc_mcu7t5v0__fill_4
XFILLER_11_425 vdd vss gf180mcu_fd_sc_mcu7t5v0__fill_1
XFILLER_23_66 vdd vss gf180mcu_fd_sc_mcu7t5v0__fill_4
XFILLER_2_101 vdd vss gf180mcu_fd_sc_mcu7t5v0__fill_4
XFILLER_93_428 vdd vss gf180mcu_fd_sc_mcu7t5v0__fill_2
XFILLER_86_480 vdd vss gf180mcu_fd_sc_mcu7t5v0__fill_1
XFILLER_73_141 vdd vss gf180mcu_fd_sc_mcu7t5v0__fill_1
XFILLER_0_37 vdd vss gf180mcu_fd_sc_mcu7t5v0__fillcap_8
X_189_ net20 _007_ vdd vss gf180mcu_fd_sc_mcu7t5v0__clkbuf_1
XFILLER_89_70 vdd vss gf180mcu_fd_sc_mcu7t5v0__fill_1
XFILLER_69_425 vdd vss gf180mcu_fd_sc_mcu7t5v0__fill_1
XFILLER_29_2 vdd vss gf180mcu_fd_sc_mcu7t5v0__fill_64
XFILLER_56_108 vdd vss gf180mcu_fd_sc_mcu7t5v0__fill_64
XFILLER_52_314 vdd vss gf180mcu_fd_sc_mcu7t5v0__fill_4
XFILLER_75_428 vdd vss gf180mcu_fd_sc_mcu7t5v0__fill_64
XFILLER_0_649 vdd vss gf180mcu_fd_sc_mcu7t5v0__fill_2
XFILLER_71_634 vdd vss gf180mcu_fd_sc_mcu7t5v0__fill_4
XFILLER_55_141 vdd vss gf180mcu_fd_sc_mcu7t5v0__fill_1
XANTENNA__138__A1 net7 vdd vss gf180mcu_fd_sc_mcu7t5v0__antenna
XFILLER_7_215 vdd vss gf180mcu_fd_sc_mcu7t5v0__fill_64
XFILLER_59_73 vdd vss gf180mcu_fd_sc_mcu7t5v0__fill_64
XTAP_509 vdd vss gf180mcu_fd_sc_mcu7t5v0__filltie
XFILLER_3_421 vdd vss gf180mcu_fd_sc_mcu7t5v0__fill_4
XFILLER_93_269 vdd vss gf180mcu_fd_sc_mcu7t5v0__fill_4
XFILLER_93_247 vdd vss gf180mcu_fd_sc_mcu7t5v0__fill_2
XFILLER_38_108 vdd vss gf180mcu_fd_sc_mcu7t5v0__fill_64
XFILLER_34_314 vdd vss gf180mcu_fd_sc_mcu7t5v0__fill_4
XANTENNA__129__A1 net8 vdd vss gf180mcu_fd_sc_mcu7t5v0__antenna
XFILLER_61_144 vdd vss gf180mcu_fd_sc_mcu7t5v0__fill_64
XFILLER_30_531 vdd vss gf180mcu_fd_sc_mcu7t5v0__fill_1
Xmacro_decap8_105 io_oeb[7] vdd vss gf180mcu_fd_sc_mcu7t5v0__tiel
Xmacro_decap8_116 io_oeb[18] vdd vss gf180mcu_fd_sc_mcu7t5v0__tiel
XFILLER_57_428 vdd vss gf180mcu_fd_sc_mcu7t5v0__fill_64