*SPEF "ieee 1481-1999"
*DESIGN "macro_golden"
*DATE "11:11:11 Fri 11 11, 1111"
*VENDOR "OpenRCX"
*PROGRAM "Parallel Extraction"
*VERSION "1.0"
*DESIGN_FLOW "NAME_SCOPE LOCAL" "PIN_CAP NONE"
*DIVIDER /
*DELIMITER :
*BUS_DELIMITER []
*T_UNIT 1 NS
*C_UNIT 1 PF
*R_UNIT 1 OHM
*L_UNIT 1 HENRY

*NAME_MAP
*1 io_active
*2 io_in[0]
*3 io_in[10]
*4 io_in[11]
*5 io_in[12]
*6 io_in[13]
*7 io_in[14]
*8 io_in[15]
*9 io_in[16]
*10 io_in[17]
*11 io_in[18]
*12 io_in[19]
*13 io_in[1]
*14 io_in[20]
*15 io_in[21]
*16 io_in[22]
*17 io_in[23]
*18 io_in[24]
*19 io_in[25]
*20 io_in[26]
*21 io_in[27]
*22 io_in[28]
*23 io_in[29]
*24 io_in[2]
*25 io_in[30]
*26 io_in[31]
*27 io_in[32]
*28 io_in[33]
*29 io_in[34]
*30 io_in[35]
*31 io_in[36]
*32 io_in[37]
*33 io_in[3]
*34 io_in[4]
*35 io_in[5]
*36 io_in[6]
*37 io_in[7]
*38 io_in[8]
*39 io_in[9]
*40 net98
*41 net108
*42 net109
*43 net110
*44 net111
*45 net112
*46 net113
*47 net114
*48 net115
*49 net116
*50 net117
*51 net99
*52 net118
*53 net119
*54 net120
*55 net121
*56 net122
*57 net123
*58 net124
*59 net125
*60 net126
*61 net127
*62 net100
*63 net128
*64 net129
*65 net130
*66 net131
*67 net132
*68 net133
*69 net134
*70 net135
*71 net101
*72 net102
*73 net103
*74 net104
*75 net105
*76 net106
*77 net107
*78 io_out[0]
*79 io_out[10]
*80 io_out[11]
*81 io_out[12]
*82 io_out[13]
*83 io_out[14]
*84 io_out[15]
*85 io_out[16]
*86 io_out[17]
*87 net139
*88 net140
*89 net136
*90 net141
*91 net142
*92 net143
*93 net144
*94 net145
*95 net146
*96 net147
*97 net148
*98 net149
*99 net150
*100 net137
*101 net151
*102 net152
*103 net153
*104 net154
*105 net155
*106 net156
*107 net157
*108 net158
*109 net138
*110 io_out[4]
*111 io_out[5]
*112 io_out[6]
*113 io_out[7]
*114 io_out[8]
*115 io_out[9]
*116 net159
*117 net160
*118 net161
*119 la_data_in[0]
*120 la_data_in[10]
*121 la_data_in[11]
*122 la_data_in[12]
*123 la_data_in[13]
*124 la_data_in[14]
*125 la_data_in[15]
*126 la_data_in[16]
*127 la_data_in[17]
*128 la_data_in[18]
*129 la_data_in[19]
*130 la_data_in[1]
*131 la_data_in[20]
*132 la_data_in[21]
*133 la_data_in[22]
*134 la_data_in[23]
*135 la_data_in[24]
*136 la_data_in[25]
*137 la_data_in[26]
*138 la_data_in[27]
*139 la_data_in[28]
*140 la_data_in[29]
*141 la_data_in[2]
*142 la_data_in[30]
*143 la_data_in[31]
*144 la_data_in[32]
*145 la_data_in[33]
*146 la_data_in[34]
*147 la_data_in[35]
*148 la_data_in[36]
*149 la_data_in[37]
*150 la_data_in[38]
*151 la_data_in[39]
*152 la_data_in[3]
*153 la_data_in[40]
*154 la_data_in[41]
*155 la_data_in[42]
*156 la_data_in[43]
*157 la_data_in[44]
*158 la_data_in[45]
*159 la_data_in[46]
*160 la_data_in[47]
*161 la_data_in[48]
*162 la_data_in[49]
*163 la_data_in[4]
*164 la_data_in[50]
*165 la_data_in[51]
*166 la_data_in[52]
*167 la_data_in[53]
*168 la_data_in[54]
*169 la_data_in[55]
*170 la_data_in[56]
*171 la_data_in[57]
*172 la_data_in[58]
*173 la_data_in[59]
*174 la_data_in[5]
*175 la_data_in[60]
*176 la_data_in[61]
*177 la_data_in[62]
*178 la_data_in[63]
*179 la_data_in[6]
*180 la_data_in[7]
*181 la_data_in[8]
*182 la_data_in[9]
*183 net162
*184 net172
*185 net173
*186 net174
*187 net175
*188 net176
*189 net177
*190 net178
*191 net179
*192 net180
*193 net181
*194 net163
*195 net182
*196 net183
*197 net184
*198 net185
*199 net186
*200 net187
*201 net188
*202 net189
*203 net190
*204 net191
*205 net164
*206 net192
*207 net193
*208 net194
*209 net195
*210 net196
*211 net197
*212 net37
*213 net38
*214 net39
*215 net40
*216 net165
*217 net41
*218 net42
*219 net43
*220 net44
*221 net45
*222 net46
*223 net47
*224 net48
*225 net49
*226 net50
*227 net166
*228 net51
*229 net52
*230 net53
*231 net54
*232 net55
*233 net56
*234 net57
*235 net58
*236 net59
*237 net60
*238 net167
*239 net61
*240 net62
*241 net63
*242 net64
*243 net168
*244 net169
*245 net170
*246 net171
*247 la_oenb[0]
*248 la_oenb[10]
*249 la_oenb[11]
*250 la_oenb[12]
*251 la_oenb[13]
*252 la_oenb[14]
*253 la_oenb[15]
*254 la_oenb[16]
*255 la_oenb[17]
*256 la_oenb[18]
*257 la_oenb[19]
*258 la_oenb[1]
*259 la_oenb[20]
*260 la_oenb[21]
*261 la_oenb[22]
*262 la_oenb[23]
*263 la_oenb[24]
*264 la_oenb[25]
*265 la_oenb[26]
*266 la_oenb[27]
*267 la_oenb[28]
*268 la_oenb[29]
*269 la_oenb[2]
*270 la_oenb[30]
*271 la_oenb[31]
*272 la_oenb[32]
*273 la_oenb[33]
*274 la_oenb[34]
*275 la_oenb[35]
*276 la_oenb[36]
*277 la_oenb[37]
*278 la_oenb[38]
*279 la_oenb[39]
*280 la_oenb[3]
*281 la_oenb[40]
*282 la_oenb[41]
*283 la_oenb[42]
*284 la_oenb[43]
*285 la_oenb[44]
*286 la_oenb[45]
*287 la_oenb[46]
*288 la_oenb[47]
*289 la_oenb[48]
*290 la_oenb[49]
*291 la_oenb[4]
*292 la_oenb[50]
*293 la_oenb[51]
*294 la_oenb[52]
*295 la_oenb[53]
*296 la_oenb[54]
*297 la_oenb[55]
*298 la_oenb[56]
*299 la_oenb[57]
*300 la_oenb[58]
*301 la_oenb[59]
*302 la_oenb[5]
*303 la_oenb[60]
*304 la_oenb[61]
*305 la_oenb[62]
*306 la_oenb[63]
*307 la_oenb[6]
*308 la_oenb[7]
*309 la_oenb[8]
*310 la_oenb[9]
*313 wb_clk_i
*314 wb_rst_i
*315 net65
*316 wbs_adr_i[0]
*317 wbs_adr_i[10]
*318 wbs_adr_i[11]
*319 wbs_adr_i[12]
*320 wbs_adr_i[13]
*321 wbs_adr_i[14]
*322 wbs_adr_i[15]
*323 wbs_adr_i[16]
*324 wbs_adr_i[17]
*325 wbs_adr_i[18]
*326 wbs_adr_i[19]
*327 wbs_adr_i[1]
*328 wbs_adr_i[20]
*329 wbs_adr_i[21]
*330 wbs_adr_i[22]
*331 wbs_adr_i[23]
*332 wbs_adr_i[24]
*333 wbs_adr_i[25]
*334 wbs_adr_i[26]
*335 wbs_adr_i[27]
*336 wbs_adr_i[28]
*337 wbs_adr_i[29]
*338 wbs_adr_i[2]
*339 wbs_adr_i[30]
*340 wbs_adr_i[31]
*341 wbs_adr_i[3]
*342 wbs_adr_i[4]
*343 wbs_adr_i[5]
*344 wbs_adr_i[6]
*345 wbs_adr_i[7]
*346 wbs_adr_i[8]
*347 wbs_adr_i[9]
*348 wbs_cyc_i
*349 wbs_dat_i[0]
*350 wbs_dat_i[10]
*351 wbs_dat_i[11]
*352 wbs_dat_i[12]
*353 wbs_dat_i[13]
*354 wbs_dat_i[14]
*355 wbs_dat_i[15]
*356 wbs_dat_i[16]
*357 wbs_dat_i[17]
*358 wbs_dat_i[18]
*359 wbs_dat_i[19]
*360 wbs_dat_i[1]
*361 wbs_dat_i[20]
*362 wbs_dat_i[21]
*363 wbs_dat_i[22]
*364 wbs_dat_i[23]
*365 wbs_dat_i[24]
*366 wbs_dat_i[25]
*367 wbs_dat_i[26]
*368 wbs_dat_i[27]
*369 wbs_dat_i[28]
*370 wbs_dat_i[29]
*371 wbs_dat_i[2]
*372 wbs_dat_i[30]
*373 wbs_dat_i[31]
*374 wbs_dat_i[3]
*375 wbs_dat_i[4]
*376 wbs_dat_i[5]
*377 wbs_dat_i[6]
*378 wbs_dat_i[7]
*379 wbs_dat_i[8]
*380 wbs_dat_i[9]
*381 net66
*382 net76
*383 net77
*384 net78
*385 net79
*386 net80
*387 net81
*388 net82
*389 net83
*390 net84
*391 net85
*392 net67
*393 net86
*394 net87
*395 net88
*396 net89
*397 net90
*398 net91
*399 net92
*400 net93
*401 net94
*402 net95
*403 net68
*404 net96
*405 net97
*406 net69
*407 net70
*408 net71
*409 net72
*410 net73
*411 net74
*412 net75
*413 wbs_sel_i[0]
*414 wbs_sel_i[1]
*415 wbs_sel_i[2]
*416 wbs_sel_i[3]
*417 wbs_stb_i
*418 wbs_we_i
*419 _000_
*420 _001_
*421 _002_
*422 _003_
*423 _004_
*424 _005_
*425 _006_
*426 _007_
*427 _008_
*428 _009_
*429 _010_
*430 _011_
*431 _012_
*432 _013_
*433 _014_
*434 _015_
*435 _016_
*436 _017_
*437 _018_
*438 _019_
*439 _020_
*440 _021_
*441 _022_
*442 _023_
*443 _024_
*444 _025_
*445 _026_
*446 _027_
*447 _028_
*448 _029_
*449 _030_
*450 _031_
*451 _032_
*452 _033_
*453 _034_
*454 _035_
*455 _036_
*456 _037_
*457 _038_
*458 _039_
*459 _040_
*460 _041_
*461 _042_
*462 _043_
*463 _044_
*464 _045_
*465 _046_
*466 _047_
*467 _048_
*468 _049_
*469 _050_
*470 _051_
*471 _052_
*472 _053_
*473 _054_
*474 _055_
*475 _056_
*476 _057_
*477 _058_
*478 _059_
*479 _060_
*480 _061_
*481 _062_
*482 _063_
*483 _064_
*484 _065_
*485 _066_
*486 _067_
*487 _068_
*488 _069_
*489 _070_
*490 _071_
*491 _072_
*492 _073_
*493 _074_
*494 _075_
*495 _076_
*496 _077_
*497 _078_
*498 _079_
*499 _080_
*500 _081_
*501 _082_
*502 _083_
*503 _084_
*504 _085_
*505 _086_
*506 _087_
*507 _088_
*508 _089_
*509 _090_
*510 _091_
*511 _092_
*512 _093_
*513 _094_
*514 _095_
*515 _096_
*516 _097_
*517 _098_
*518 _099_
*519 _100_
*520 _101_
*521 _102_
*522 _103_
*523 _104_
*524 _105_
*525 _106_
*526 _107_
*527 _108_
*528 _109_
*529 _110_
*530 _111_
*531 _112_
*532 _113_
*533 _114_
*534 _115_
*535 _116_
*536 _117_
*537 _118_
*538 net1
*539 net10
*540 net11
*541 net12
*542 net13
*543 net14
*544 net15
*545 net16
*546 net17
*547 net18
*548 net19
*549 net2
*550 net20
*551 net21
*552 net22
*553 net23
*554 net24
*555 net25
*556 net26
*557 net27
*558 net28
*559 net29
*560 net3
*561 net30
*562 net31
*563 net32
*564 net33
*565 net34
*566 net35
*567 net36
*568 net4
*569 net5
*570 net6
*571 net7
*572 net8
*573 net9
*574 ANTENNA__119__I
*575 ANTENNA__123__A1
*576 ANTENNA__124__A1
*577 ANTENNA__124__A2
*578 ANTENNA__124__A3
*579 ANTENNA__125__A1
*580 ANTENNA__126__A1
*581 ANTENNA__127__I
*582 ANTENNA__128__A2
*583 ANTENNA__128__B2
*584 ANTENNA__129__A1
*585 ANTENNA__132__I
*586 ANTENNA__133__A2
*587 ANTENNA__134__A2
*588 ANTENNA__135__A2
*589 ANTENNA__136__I
*590 ANTENNA__138__A1
*591 ANTENNA__138__A3
*592 ANTENNA__141__A1
*593 ANTENNA__142__A1
*594 ANTENNA__147__I
*595 ANTENNA__150__A1
*596 ANTENNA__152__A1
*597 ANTENNA__152__A3
*598 ANTENNA__153__A1
*599 ANTENNA__154__A1
*600 ANTENNA__155__A1
*601 ANTENNA__156__I
*602 ANTENNA__157__A2
*603 ANTENNA__157__B2
*604 ANTENNA__158__A1
*605 ANTENNA__159__A1
*606 ANTENNA__161__I
*607 ANTENNA__162__A2
*608 ANTENNA__167__A1
*609 ANTENNA__169__A1
*610 ANTENNA__170__A1
*611 ANTENNA__171__A1
*612 ANTENNA__171__B
*613 ANTENNA__176__I
*614 ANTENNA__177__A2
*615 ANTENNA__178__A2
*616 ANTENNA__179__B1
*617 ANTENNA__179__B2
*618 ANTENNA__180__I
*619 ANTENNA__181__I
*620 ANTENNA__182__A1
*621 ANTENNA__183__A1
*622 ANTENNA__184__I
*623 ANTENNA__185__A1
*624 ANTENNA__189__I
*625 ANTENNA__192__I
*626 ANTENNA__193__A2
*627 ANTENNA__195__A2
*628 ANTENNA__197__A1
*629 ANTENNA__198__A1
*630 ANTENNA__198__A2
*631 ANTENNA__200__A2
*632 ANTENNA__201__A2
*633 ANTENNA__203__I
*634 ANTENNA__209__I
*635 ANTENNA__210__S
*636 ANTENNA__211__A2
*637 ANTENNA__215__A1
*638 ANTENNA__216__A2
*639 ANTENNA__218__I
*640 ANTENNA__219__C
*641 ANTENNA__224__A2
*642 ANTENNA__224__C
*643 ANTENNA__225__A3
*644 ANTENNA__227__I
*645 ANTENNA__228__A1
*646 ANTENNA__228__A2
*647 ANTENNA__229__A1
*648 ANTENNA__229__A2
*649 ANTENNA__231__A1
*650 ANTENNA__232__A1
*651 ANTENNA__233__A1
*652 ANTENNA__233__B
*653 ANTENNA__237__A1
*654 ANTENNA__238__A1
*655 ANTENNA__239__A1
*656 ANTENNA__239__B
*657 ANTENNA__241__S
*658 ANTENNA__242__A1
*659 ANTENNA__243__A1
*660 ANTENNA__243__C
*661 ANTENNA__246__A2
*662 ANTENNA__246__B1
*663 ANTENNA__247__A2
*664 ANTENNA__249__I
*665 ANTENNA__250__A2
*666 ANTENNA_input10_I
*667 ANTENNA_input11_I
*668 ANTENNA_input12_I
*669 ANTENNA_input13_I
*670 ANTENNA_input14_I
*671 ANTENNA_input15_I
*672 ANTENNA_input16_I
*673 ANTENNA_input17_I
*674 ANTENNA_input18_I
*675 ANTENNA_input19_I
*676 ANTENNA_input1_I
*677 ANTENNA_input20_I
*678 ANTENNA_input21_I
*679 ANTENNA_input2_I
*680 ANTENNA_input3_I
*681 ANTENNA_input4_I
*682 ANTENNA_input5_I
*683 ANTENNA_input6_I
*684 ANTENNA_input7_I
*685 ANTENNA_input8_I
*686 ANTENNA_input9_I
*687 ANTENNA_output22_I
*688 ANTENNA_output23_I
*689 ANTENNA_output24_I
*690 ANTENNA_output31_I
*691 ANTENNA_output32_I
*692 ANTENNA_output33_I
*693 ANTENNA_output34_I
*694 ANTENNA_output35_I
*695 ANTENNA_output36_I
*696 FILLER_0_104
*697 FILLER_0_107
*698 FILLER_0_115
*699 FILLER_0_121
*700 FILLER_0_127
*701 FILLER_0_133
*702 FILLER_0_139
*703 FILLER_0_142
*704 FILLER_0_150
*705 FILLER_0_156
*706 FILLER_0_162
*707 FILLER_0_168
*708 FILLER_0_174
*709 FILLER_0_177
*710 FILLER_0_185
*711 FILLER_0_191
*712 FILLER_0_197
*713 FILLER_0_2
*714 FILLER_0_203
*715 FILLER_0_209
*716 FILLER_0_212
*717 FILLER_0_220
*718 FILLER_0_226
*719 FILLER_0_232
*720 FILLER_0_238
*721 FILLER_0_244
*722 FILLER_0_247
*723 FILLER_0_255
*724 FILLER_0_261
*725 FILLER_0_267
*726 FILLER_0_273
*727 FILLER_0_279
*728 FILLER_0_282
*729 FILLER_0_290
*730 FILLER_0_296
*731 FILLER_0_302
*732 FILLER_0_308
*733 FILLER_0_314
*734 FILLER_0_317
*735 FILLER_0_325
*736 FILLER_0_331
*737 FILLER_0_337
*738 FILLER_0_34
*739 FILLER_0_343
*740 FILLER_0_349
*741 FILLER_0_352
*742 FILLER_0_354
*743 FILLER_0_359
*744 FILLER_0_365
*745 FILLER_0_37
*746 FILLER_0_371
*747 FILLER_0_377
*748 FILLER_0_383
*749 FILLER_0_387
*750 FILLER_0_392
*751 FILLER_0_398
*752 FILLER_0_404
*753 FILLER_0_410
*754 FILLER_0_416
*755 FILLER_0_422
*756 FILLER_0_427
*757 FILLER_0_433
*758 FILLER_0_439
*759 FILLER_0_445
*760 FILLER_0_45
*761 FILLER_0_451
*762 FILLER_0_457
*763 FILLER_0_462
*764 FILLER_0_468
*765 FILLER_0_474
*766 FILLER_0_480
*767 FILLER_0_486
*768 FILLER_0_492
*769 FILLER_0_497
*770 FILLER_0_503
*771 FILLER_0_509
*772 FILLER_0_515
*773 FILLER_0_521
*774 FILLER_0_527
*775 FILLER_0_53
*776 FILLER_0_532
*777 FILLER_0_538
*778 FILLER_0_544
*779 FILLER_0_550
*780 FILLER_0_556
*781 FILLER_0_562
*782 FILLER_0_567
*783 FILLER_0_57
*784 FILLER_0_573
*785 FILLER_0_579
*786 FILLER_0_585
*787 FILLER_0_591
*788 FILLER_0_597
*789 FILLER_0_602
*790 FILLER_0_608
*791 FILLER_0_614
*792 FILLER_0_620
*793 FILLER_0_626
*794 FILLER_0_63
*795 FILLER_0_632
*796 FILLER_0_637
*797 FILLER_0_643
*798 FILLER_0_649
*799 FILLER_0_655
*800 FILLER_0_663
*801 FILLER_0_667
*802 FILLER_0_683
*803 FILLER_0_687
*804 FILLER_0_69
*805 FILLER_0_72
*806 FILLER_0_80
*807 FILLER_0_86
*808 FILLER_0_92
*809 FILLER_0_98
*810 FILLER_10_101
*811 FILLER_10_105
*812 FILLER_10_108
*813 FILLER_10_172
*814 FILLER_10_176
*815 FILLER_10_179
*816 FILLER_10_2
*817 FILLER_10_243
*818 FILLER_10_247
*819 FILLER_10_250
*820 FILLER_10_314
*821 FILLER_10_318
*822 FILLER_10_321
*823 FILLER_10_34
*824 FILLER_10_37
*825 FILLER_10_385
*826 FILLER_10_389
*827 FILLER_10_392
*828 FILLER_10_456
*829 FILLER_10_460
*830 FILLER_10_463
*831 FILLER_10_527
*832 FILLER_10_531
*833 FILLER_10_534
*834 FILLER_10_598
*835 FILLER_10_602
*836 FILLER_10_605
*837 FILLER_10_669
*838 FILLER_10_673
*839 FILLER_10_676
*840 FILLER_10_684
*841 FILLER_11_137
*842 FILLER_11_141
*843 FILLER_11_144
*844 FILLER_11_2
*845 FILLER_11_208
*846 FILLER_11_212
*847 FILLER_11_215
*848 FILLER_11_279
*849 FILLER_11_283
*850 FILLER_11_286
*851 FILLER_11_350
*852 FILLER_11_354
*853 FILLER_11_357
*854 FILLER_11_421
*855 FILLER_11_425
*856 FILLER_11_428
*857 FILLER_11_492
*858 FILLER_11_496
*859 FILLER_11_499
*860 FILLER_11_563
*861 FILLER_11_567
*862 FILLER_11_570
*863 FILLER_11_634
*864 FILLER_11_638
*865 FILLER_11_641
*866 FILLER_11_66
*867 FILLER_11_673
*868 FILLER_11_681
*869 FILLER_11_685
*870 FILLER_11_687
*871 FILLER_11_70
*872 FILLER_11_73
*873 FILLER_12_101
*874 FILLER_12_105
*875 FILLER_12_108
*876 FILLER_12_172
*877 FILLER_12_176
*878 FILLER_12_179
*879 FILLER_12_2
*880 FILLER_12_243
*881 FILLER_12_247
*882 FILLER_12_250
*883 FILLER_12_314
*884 FILLER_12_318
*885 FILLER_12_321
*886 FILLER_12_34
*887 FILLER_12_37
*888 FILLER_12_385
*889 FILLER_12_389
*890 FILLER_12_392
*891 FILLER_12_456
*892 FILLER_12_460
*893 FILLER_12_463
*894 FILLER_12_527
*895 FILLER_12_531
*896 FILLER_12_534
*897 FILLER_12_598
*898 FILLER_12_602
*899 FILLER_12_605
*900 FILLER_12_669
*901 FILLER_12_673
*902 FILLER_12_676
*903 FILLER_12_684
*904 FILLER_13_137
*905 FILLER_13_141
*906 FILLER_13_144
*907 FILLER_13_2
*908 FILLER_13_208
*909 FILLER_13_212
*910 FILLER_13_215
*911 FILLER_13_279
*912 FILLER_13_283
*913 FILLER_13_286
*914 FILLER_13_350
*915 FILLER_13_354
*916 FILLER_13_357
*917 FILLER_13_421
*918 FILLER_13_425
*919 FILLER_13_428
*920 FILLER_13_492
*921 FILLER_13_496
*922 FILLER_13_499
*923 FILLER_13_563
*924 FILLER_13_567
*925 FILLER_13_570
*926 FILLER_13_634
*927 FILLER_13_638
*928 FILLER_13_641
*929 FILLER_13_66
*930 FILLER_13_673
*931 FILLER_13_681
*932 FILLER_13_685
*933 FILLER_13_687
*934 FILLER_13_70
*935 FILLER_13_73
*936 FILLER_14_101
*937 FILLER_14_105
*938 FILLER_14_108
*939 FILLER_14_172
*940 FILLER_14_176
*941 FILLER_14_179
*942 FILLER_14_2
*943 FILLER_14_243
*944 FILLER_14_247
*945 FILLER_14_250
*946 FILLER_14_314
*947 FILLER_14_318
*948 FILLER_14_321
*949 FILLER_14_34
*950 FILLER_14_37
*951 FILLER_14_385
*952 FILLER_14_389
*953 FILLER_14_392
*954 FILLER_14_456
*955 FILLER_14_460
*956 FILLER_14_463
*957 FILLER_14_527
*958 FILLER_14_531
*959 FILLER_14_534
*960 FILLER_14_598
*961 FILLER_14_602
*962 FILLER_14_605
*963 FILLER_14_669
*964 FILLER_14_673
*965 FILLER_14_676
*966 FILLER_14_684
*967 FILLER_15_137
*968 FILLER_15_141
*969 FILLER_15_144
*970 FILLER_15_2
*971 FILLER_15_208
*972 FILLER_15_212
*973 FILLER_15_215
*974 FILLER_15_279
*975 FILLER_15_283
*976 FILLER_15_286
*977 FILLER_15_350
*978 FILLER_15_354
*979 FILLER_15_357
*980 FILLER_15_421
*981 FILLER_15_425
*982 FILLER_15_428
*983 FILLER_15_492
*984 FILLER_15_496
*985 FILLER_15_499
*986 FILLER_15_563
*987 FILLER_15_567
*988 FILLER_15_570
*989 FILLER_15_634
*990 FILLER_15_638
*991 FILLER_15_641
*992 FILLER_15_66
*993 FILLER_15_673
*994 FILLER_15_681
*995 FILLER_15_685
*996 FILLER_15_687
*997 FILLER_15_70
*998 FILLER_15_73
*999 FILLER_16_101
*1000 FILLER_16_105
*1001 FILLER_16_108
*1002 FILLER_16_172
*1003 FILLER_16_176
*1004 FILLER_16_179
*1005 FILLER_16_2
*1006 FILLER_16_243
*1007 FILLER_16_247
*1008 FILLER_16_250
*1009 FILLER_16_314
*1010 FILLER_16_318
*1011 FILLER_16_321
*1012 FILLER_16_34
*1013 FILLER_16_37
*1014 FILLER_16_385
*1015 FILLER_16_389
*1016 FILLER_16_392
*1017 FILLER_16_456
*1018 FILLER_16_460
*1019 FILLER_16_463
*1020 FILLER_16_527
*1021 FILLER_16_531
*1022 FILLER_16_534
*1023 FILLER_16_598
*1024 FILLER_16_602
*1025 FILLER_16_605
*1026 FILLER_16_669
*1027 FILLER_16_673
*1028 FILLER_16_676
*1029 FILLER_16_684
*1030 FILLER_17_137
*1031 FILLER_17_141
*1032 FILLER_17_144
*1033 FILLER_17_2
*1034 FILLER_17_208
*1035 FILLER_17_212
*1036 FILLER_17_215
*1037 FILLER_17_279
*1038 FILLER_17_283
*1039 FILLER_17_286
*1040 FILLER_17_350
*1041 FILLER_17_354
*1042 FILLER_17_357
*1043 FILLER_17_421
*1044 FILLER_17_425
*1045 FILLER_17_428
*1046 FILLER_17_492
*1047 FILLER_17_496
*1048 FILLER_17_499
*1049 FILLER_17_563
*1050 FILLER_17_567
*1051 FILLER_17_570
*1052 FILLER_17_634
*1053 FILLER_17_638
*1054 FILLER_17_641
*1055 FILLER_17_66
*1056 FILLER_17_673
*1057 FILLER_17_681
*1058 FILLER_17_685
*1059 FILLER_17_687
*1060 FILLER_17_70
*1061 FILLER_17_73
*1062 FILLER_18_101
*1063 FILLER_18_105
*1064 FILLER_18_108
*1065 FILLER_18_172
*1066 FILLER_18_176
*1067 FILLER_18_179
*1068 FILLER_18_2
*1069 FILLER_18_243
*1070 FILLER_18_247
*1071 FILLER_18_250
*1072 FILLER_18_314
*1073 FILLER_18_318
*1074 FILLER_18_321
*1075 FILLER_18_34
*1076 FILLER_18_37
*1077 FILLER_18_385
*1078 FILLER_18_389
*1079 FILLER_18_392
*1080 FILLER_18_456
*1081 FILLER_18_460
*1082 FILLER_18_463
*1083 FILLER_18_527
*1084 FILLER_18_531
*1085 FILLER_18_534
*1086 FILLER_18_598
*1087 FILLER_18_602
*1088 FILLER_18_605
*1089 FILLER_18_669
*1090 FILLER_18_673
*1091 FILLER_18_676
*1092 FILLER_18_684
*1093 FILLER_19_137
*1094 FILLER_19_141
*1095 FILLER_19_144
*1096 FILLER_19_2
*1097 FILLER_19_208
*1098 FILLER_19_212
*1099 FILLER_19_215
*1100 FILLER_19_279
*1101 FILLER_19_283
*1102 FILLER_19_286
*1103 FILLER_19_350
*1104 FILLER_19_354
*1105 FILLER_19_357
*1106 FILLER_19_421
*1107 FILLER_19_425
*1108 FILLER_19_428
*1109 FILLER_19_492
*1110 FILLER_19_496
*1111 FILLER_19_499
*1112 FILLER_19_563
*1113 FILLER_19_567
*1114 FILLER_19_570
*1115 FILLER_19_634
*1116 FILLER_19_638
*1117 FILLER_19_641
*1118 FILLER_19_66
*1119 FILLER_19_673
*1120 FILLER_19_681
*1121 FILLER_19_685
*1122 FILLER_19_687
*1123 FILLER_19_70
*1124 FILLER_19_73
*1125 FILLER_1_105
*1126 FILLER_1_109
*1127 FILLER_1_115
*1128 FILLER_1_131
*1129 FILLER_1_139
*1130 FILLER_1_141
*1131 FILLER_1_144
*1132 FILLER_1_146
*1133 FILLER_1_151
*1134 FILLER_1_183
*1135 FILLER_1_199
*1136 FILLER_1_2
*1137 FILLER_1_211
*1138 FILLER_1_215
*1139 FILLER_1_247
*1140 FILLER_1_253
*1141 FILLER_1_269
*1142 FILLER_1_281
*1143 FILLER_1_283
*1144 FILLER_1_286
*1145 FILLER_1_318
*1146 FILLER_1_323
*1147 FILLER_1_357
*1148 FILLER_1_421
*1149 FILLER_1_425
*1150 FILLER_1_428
*1151 FILLER_1_444
*1152 FILLER_1_449
*1153 FILLER_1_485
*1154 FILLER_1_493
*1155 FILLER_1_499
*1156 FILLER_1_515
*1157 FILLER_1_521
*1158 FILLER_1_557
*1159 FILLER_1_565
*1160 FILLER_1_567
*1161 FILLER_1_570
*1162 FILLER_1_602
*1163 FILLER_1_618
*1164 FILLER_1_623
*1165 FILLER_1_641
*1166 FILLER_1_646
*1167 FILLER_1_652
*1168 FILLER_1_66
*1169 FILLER_1_684
*1170 FILLER_1_70
*1171 FILLER_1_73
*1172 FILLER_20_101
*1173 FILLER_20_105
*1174 FILLER_20_108
*1175 FILLER_20_172
*1176 FILLER_20_176
*1177 FILLER_20_179
*1178 FILLER_20_2
*1179 FILLER_20_243
*1180 FILLER_20_247
*1181 FILLER_20_250
*1182 FILLER_20_314
*1183 FILLER_20_318
*1184 FILLER_20_321
*1185 FILLER_20_34
*1186 FILLER_20_37
*1187 FILLER_20_385
*1188 FILLER_20_389
*1189 FILLER_20_392
*1190 FILLER_20_456
*1191 FILLER_20_460
*1192 FILLER_20_463
*1193 FILLER_20_527
*1194 FILLER_20_531
*1195 FILLER_20_534
*1196 FILLER_20_598
*1197 FILLER_20_602
*1198 FILLER_20_605
*1199 FILLER_20_669
*1200 FILLER_20_673
*1201 FILLER_20_676
*1202 FILLER_20_684
*1203 FILLER_21_137
*1204 FILLER_21_141
*1205 FILLER_21_144
*1206 FILLER_21_2
*1207 FILLER_21_208
*1208 FILLER_21_212
*1209 FILLER_21_215
*1210 FILLER_21_279
*1211 FILLER_21_283
*1212 FILLER_21_286
*1213 FILLER_21_350
*1214 FILLER_21_354
*1215 FILLER_21_357
*1216 FILLER_21_421
*1217 FILLER_21_425
*1218 FILLER_21_428
*1219 FILLER_21_492
*1220 FILLER_21_496
*1221 FILLER_21_499
*1222 FILLER_21_563
*1223 FILLER_21_567
*1224 FILLER_21_570
*1225 FILLER_21_634
*1226 FILLER_21_638
*1227 FILLER_21_641
*1228 FILLER_21_66
*1229 FILLER_21_673
*1230 FILLER_21_681
*1231 FILLER_21_685
*1232 FILLER_21_687
*1233 FILLER_21_70
*1234 FILLER_21_73
*1235 FILLER_22_101
*1236 FILLER_22_105
*1237 FILLER_22_108
*1238 FILLER_22_172
*1239 FILLER_22_176
*1240 FILLER_22_179
*1241 FILLER_22_2
*1242 FILLER_22_243
*1243 FILLER_22_247
*1244 FILLER_22_250
*1245 FILLER_22_314
*1246 FILLER_22_318
*1247 FILLER_22_321
*1248 FILLER_22_34
*1249 FILLER_22_37
*1250 FILLER_22_385
*1251 FILLER_22_389
*1252 FILLER_22_392
*1253 FILLER_22_456
*1254 FILLER_22_460
*1255 FILLER_22_463
*1256 FILLER_22_527
*1257 FILLER_22_531
*1258 FILLER_22_534
*1259 FILLER_22_598
*1260 FILLER_22_602
*1261 FILLER_22_605
*1262 FILLER_22_669
*1263 FILLER_22_673
*1264 FILLER_22_676
*1265 FILLER_22_684
*1266 FILLER_23_137
*1267 FILLER_23_141
*1268 FILLER_23_144
*1269 FILLER_23_2
*1270 FILLER_23_208
*1271 FILLER_23_212
*1272 FILLER_23_215
*1273 FILLER_23_279
*1274 FILLER_23_283
*1275 FILLER_23_286
*1276 FILLER_23_350
*1277 FILLER_23_354
*1278 FILLER_23_357
*1279 FILLER_23_421
*1280 FILLER_23_425
*1281 FILLER_23_428
*1282 FILLER_23_492
*1283 FILLER_23_496
*1284 FILLER_23_499
*1285 FILLER_23_563
*1286 FILLER_23_567
*1287 FILLER_23_570
*1288 FILLER_23_634
*1289 FILLER_23_638
*1290 FILLER_23_641
*1291 FILLER_23_66
*1292 FILLER_23_673
*1293 FILLER_23_681
*1294 FILLER_23_685
*1295 FILLER_23_687
*1296 FILLER_23_70
*1297 FILLER_23_73
*1298 FILLER_24_101
*1299 FILLER_24_105
*1300 FILLER_24_108
*1301 FILLER_24_172
*1302 FILLER_24_176
*1303 FILLER_24_179
*1304 FILLER_24_2
*1305 FILLER_24_243
*1306 FILLER_24_247
*1307 FILLER_24_250
*1308 FILLER_24_314
*1309 FILLER_24_318
*1310 FILLER_24_321
*1311 FILLER_24_34
*1312 FILLER_24_37
*1313 FILLER_24_385
*1314 FILLER_24_389
*1315 FILLER_24_392
*1316 FILLER_24_456
*1317 FILLER_24_460
*1318 FILLER_24_463
*1319 FILLER_24_527
*1320 FILLER_24_531
*1321 FILLER_24_534
*1322 FILLER_24_598
*1323 FILLER_24_602
*1324 FILLER_24_605
*1325 FILLER_24_669
*1326 FILLER_24_673
*1327 FILLER_24_676
*1328 FILLER_24_684
*1329 FILLER_25_137
*1330 FILLER_25_141
*1331 FILLER_25_144
*1332 FILLER_25_2
*1333 FILLER_25_208
*1334 FILLER_25_212
*1335 FILLER_25_215
*1336 FILLER_25_279
*1337 FILLER_25_283
*1338 FILLER_25_286
*1339 FILLER_25_350
*1340 FILLER_25_354
*1341 FILLER_25_357
*1342 FILLER_25_421
*1343 FILLER_25_425
*1344 FILLER_25_428
*1345 FILLER_25_492
*1346 FILLER_25_496
*1347 FILLER_25_499
*1348 FILLER_25_563
*1349 FILLER_25_567
*1350 FILLER_25_570
*1351 FILLER_25_634
*1352 FILLER_25_638
*1353 FILLER_25_641
*1354 FILLER_25_66
*1355 FILLER_25_673
*1356 FILLER_25_681
*1357 FILLER_25_685
*1358 FILLER_25_687
*1359 FILLER_25_70
*1360 FILLER_25_73
*1361 FILLER_26_101
*1362 FILLER_26_105
*1363 FILLER_26_108
*1364 FILLER_26_172
*1365 FILLER_26_176
*1366 FILLER_26_179
*1367 FILLER_26_2
*1368 FILLER_26_243
*1369 FILLER_26_247
*1370 FILLER_26_250
*1371 FILLER_26_314
*1372 FILLER_26_318
*1373 FILLER_26_321
*1374 FILLER_26_34
*1375 FILLER_26_37
*1376 FILLER_26_385
*1377 FILLER_26_389
*1378 FILLER_26_392
*1379 FILLER_26_456
*1380 FILLER_26_460
*1381 FILLER_26_463
*1382 FILLER_26_527
*1383 FILLER_26_531
*1384 FILLER_26_534
*1385 FILLER_26_598
*1386 FILLER_26_602
*1387 FILLER_26_605
*1388 FILLER_26_669
*1389 FILLER_26_673
*1390 FILLER_26_676
*1391 FILLER_26_684
*1392 FILLER_27_137
*1393 FILLER_27_141
*1394 FILLER_27_144
*1395 FILLER_27_2
*1396 FILLER_27_208
*1397 FILLER_27_212
*1398 FILLER_27_215
*1399 FILLER_27_279
*1400 FILLER_27_283
*1401 FILLER_27_286
*1402 FILLER_27_350
*1403 FILLER_27_354
*1404 FILLER_27_357
*1405 FILLER_27_421
*1406 FILLER_27_425
*1407 FILLER_27_428
*1408 FILLER_27_492
*1409 FILLER_27_496
*1410 FILLER_27_499
*1411 FILLER_27_563
*1412 FILLER_27_567
*1413 FILLER_27_570
*1414 FILLER_27_634
*1415 FILLER_27_638
*1416 FILLER_27_641
*1417 FILLER_27_66
*1418 FILLER_27_673
*1419 FILLER_27_681
*1420 FILLER_27_685
*1421 FILLER_27_687
*1422 FILLER_27_70
*1423 FILLER_27_73
*1424 FILLER_28_101
*1425 FILLER_28_105
*1426 FILLER_28_108
*1427 FILLER_28_172
*1428 FILLER_28_176
*1429 FILLER_28_179
*1430 FILLER_28_2
*1431 FILLER_28_243
*1432 FILLER_28_247
*1433 FILLER_28_250
*1434 FILLER_28_314
*1435 FILLER_28_318
*1436 FILLER_28_321
*1437 FILLER_28_34
*1438 FILLER_28_37
*1439 FILLER_28_385
*1440 FILLER_28_389
*1441 FILLER_28_392
*1442 FILLER_28_456
*1443 FILLER_28_460
*1444 FILLER_28_463
*1445 FILLER_28_527
*1446 FILLER_28_531
*1447 FILLER_28_534
*1448 FILLER_28_598
*1449 FILLER_28_602
*1450 FILLER_28_605
*1451 FILLER_28_669
*1452 FILLER_28_673
*1453 FILLER_28_676
*1454 FILLER_28_684
*1455 FILLER_29_137
*1456 FILLER_29_141
*1457 FILLER_29_144
*1458 FILLER_29_2
*1459 FILLER_29_208
*1460 FILLER_29_212
*1461 FILLER_29_215
*1462 FILLER_29_279
*1463 FILLER_29_283
*1464 FILLER_29_286
*1465 FILLER_29_350
*1466 FILLER_29_354
*1467 FILLER_29_357
*1468 FILLER_29_421
*1469 FILLER_29_425
*1470 FILLER_29_428
*1471 FILLER_29_492
*1472 FILLER_29_496
*1473 FILLER_29_499
*1474 FILLER_29_563
*1475 FILLER_29_567
*1476 FILLER_29_570
*1477 FILLER_29_634
*1478 FILLER_29_638
*1479 FILLER_29_641
*1480 FILLER_29_66
*1481 FILLER_29_673
*1482 FILLER_29_681
*1483 FILLER_29_685
*1484 FILLER_29_687
*1485 FILLER_29_70
*1486 FILLER_29_73
*1487 FILLER_2_101
*1488 FILLER_2_105
*1489 FILLER_2_108
*1490 FILLER_2_172
*1491 FILLER_2_176
*1492 FILLER_2_179
*1493 FILLER_2_2
*1494 FILLER_2_243
*1495 FILLER_2_247
*1496 FILLER_2_250
*1497 FILLER_2_314
*1498 FILLER_2_318
*1499 FILLER_2_321
*1500 FILLER_2_34
*1501 FILLER_2_37
*1502 FILLER_2_385
*1503 FILLER_2_389
*1504 FILLER_2_392
*1505 FILLER_2_456
*1506 FILLER_2_460
*1507 FILLER_2_463
*1508 FILLER_2_527
*1509 FILLER_2_531
*1510 FILLER_2_534
*1511 FILLER_2_598
*1512 FILLER_2_602
*1513 FILLER_2_605
*1514 FILLER_2_669
*1515 FILLER_2_673
*1516 FILLER_2_676
*1517 FILLER_2_684
*1518 FILLER_30_101
*1519 FILLER_30_105
*1520 FILLER_30_108
*1521 FILLER_30_172
*1522 FILLER_30_176
*1523 FILLER_30_179
*1524 FILLER_30_2
*1525 FILLER_30_243
*1526 FILLER_30_247
*1527 FILLER_30_250
*1528 FILLER_30_314
*1529 FILLER_30_318
*1530 FILLER_30_321
*1531 FILLER_30_34
*1532 FILLER_30_37
*1533 FILLER_30_385
*1534 FILLER_30_389
*1535 FILLER_30_392
*1536 FILLER_30_456
*1537 FILLER_30_460
*1538 FILLER_30_463
*1539 FILLER_30_527
*1540 FILLER_30_531
*1541 FILLER_30_534
*1542 FILLER_30_598
*1543 FILLER_30_602
*1544 FILLER_30_605
*1545 FILLER_30_669
*1546 FILLER_30_673
*1547 FILLER_30_676
*1548 FILLER_30_684
*1549 FILLER_31_137
*1550 FILLER_31_141
*1551 FILLER_31_144
*1552 FILLER_31_2
*1553 FILLER_31_208
*1554 FILLER_31_212
*1555 FILLER_31_215
*1556 FILLER_31_279
*1557 FILLER_31_283
*1558 FILLER_31_286
*1559 FILLER_31_350
*1560 FILLER_31_354
*1561 FILLER_31_357
*1562 FILLER_31_421
*1563 FILLER_31_425
*1564 FILLER_31_428
*1565 FILLER_31_492
*1566 FILLER_31_496
*1567 FILLER_31_499
*1568 FILLER_31_563
*1569 FILLER_31_567
*1570 FILLER_31_570
*1571 FILLER_31_634
*1572 FILLER_31_638
*1573 FILLER_31_641
*1574 FILLER_31_66
*1575 FILLER_31_673
*1576 FILLER_31_681
*1577 FILLER_31_685
*1578 FILLER_31_687
*1579 FILLER_31_70
*1580 FILLER_31_73
*1581 FILLER_32_101
*1582 FILLER_32_105
*1583 FILLER_32_108
*1584 FILLER_32_172
*1585 FILLER_32_176
*1586 FILLER_32_179
*1587 FILLER_32_2
*1588 FILLER_32_243
*1589 FILLER_32_247
*1590 FILLER_32_250
*1591 FILLER_32_314
*1592 FILLER_32_318
*1593 FILLER_32_321
*1594 FILLER_32_34
*1595 FILLER_32_37
*1596 FILLER_32_385
*1597 FILLER_32_389
*1598 FILLER_32_392
*1599 FILLER_32_456
*1600 FILLER_32_460
*1601 FILLER_32_463
*1602 FILLER_32_527
*1603 FILLER_32_531
*1604 FILLER_32_534
*1605 FILLER_32_598
*1606 FILLER_32_602
*1607 FILLER_32_605
*1608 FILLER_32_669
*1609 FILLER_32_673
*1610 FILLER_32_676
*1611 FILLER_32_684
*1612 FILLER_33_137
*1613 FILLER_33_141
*1614 FILLER_33_144
*1615 FILLER_33_2
*1616 FILLER_33_208
*1617 FILLER_33_212
*1618 FILLER_33_215
*1619 FILLER_33_279
*1620 FILLER_33_283
*1621 FILLER_33_286
*1622 FILLER_33_350
*1623 FILLER_33_354
*1624 FILLER_33_357
*1625 FILLER_33_421
*1626 FILLER_33_425
*1627 FILLER_33_428
*1628 FILLER_33_492
*1629 FILLER_33_496
*1630 FILLER_33_499
*1631 FILLER_33_563
*1632 FILLER_33_567
*1633 FILLER_33_570
*1634 FILLER_33_634
*1635 FILLER_33_638
*1636 FILLER_33_641
*1637 FILLER_33_66
*1638 FILLER_33_673
*1639 FILLER_33_681
*1640 FILLER_33_685
*1641 FILLER_33_687
*1642 FILLER_33_70
*1643 FILLER_33_73
*1644 FILLER_34_101
*1645 FILLER_34_105
*1646 FILLER_34_108
*1647 FILLER_34_172
*1648 FILLER_34_176
*1649 FILLER_34_179
*1650 FILLER_34_2
*1651 FILLER_34_243
*1652 FILLER_34_247
*1653 FILLER_34_250
*1654 FILLER_34_314
*1655 FILLER_34_318
*1656 FILLER_34_321
*1657 FILLER_34_34
*1658 FILLER_34_37
*1659 FILLER_34_385
*1660 FILLER_34_389
*1661 FILLER_34_392
*1662 FILLER_34_456
*1663 FILLER_34_460
*1664 FILLER_34_463
*1665 FILLER_34_527
*1666 FILLER_34_531
*1667 FILLER_34_534
*1668 FILLER_34_598
*1669 FILLER_34_602
*1670 FILLER_34_605
*1671 FILLER_34_669
*1672 FILLER_34_673
*1673 FILLER_34_676
*1674 FILLER_34_684
*1675 FILLER_35_137
*1676 FILLER_35_141
*1677 FILLER_35_144
*1678 FILLER_35_2
*1679 FILLER_35_208