*SPEF "ieee 1481-1999"
*DESIGN "macro_golden"
*DATE "11:11:11 Fri 11 11, 1111"
*VENDOR "OpenRCX"
*PROGRAM "Parallel Extraction"
*VERSION "1.0"
*DESIGN_FLOW "NAME_SCOPE LOCAL" "PIN_CAP NONE"
*DIVIDER /
*DELIMITER :
*BUS_DELIMITER []
*T_UNIT 1 NS
*C_UNIT 1 PF
*R_UNIT 1 OHM
*L_UNIT 1 HENRY

*NAME_MAP
*1 io_active
*2 io_in[0]
*3 io_in[10]
*4 io_in[11]
*5 io_in[12]
*6 io_in[13]
*7 io_in[14]
*8 io_in[15]
*9 io_in[16]
*10 io_in[17]
*11 io_in[18]
*12 io_in[19]
*13 io_in[1]
*14 io_in[20]
*15 io_in[21]
*16 io_in[22]
*17 io_in[23]
*18 io_in[24]
*19 io_in[25]
*20 io_in[26]
*21 io_in[27]
*22 io_in[28]
*23 io_in[29]
*24 io_in[2]
*25 io_in[30]
*26 io_in[31]
*27 io_in[32]
*28 io_in[33]
*29 io_in[34]
*30 io_in[35]
*31 io_in[36]
*32 io_in[37]
*33 io_in[3]
*34 io_in[4]
*35 io_in[5]
*36 io_in[6]
*37 io_in[7]
*38 io_in[8]
*39 io_in[9]
*40 net40
*41 net50
*42 net51
*43 net52
*44 net53
*45 net54
*46 net55
*47 net56
*48 net57
*49 net58
*50 net59
*51 net41
*52 net60
*53 net61
*54 net62
*55 net63
*56 net64
*57 net65
*58 net66
*59 net67
*60 net68
*61 net69
*62 net42
*63 net70
*64 net71
*65 net72
*66 net73
*67 net74
*68 net75
*69 net76
*70 net77
*71 net43
*72 net44
*73 net45
*74 net46
*75 net47
*76 net48
*77 net49
*78 net2
*79 net12
*80 net13
*81 net14
*82 net15
*83 net16
*84 net17
*85 net18
*86 net19
*87 net20
*88 net21
*89 net3
*90 net22
*91 net23
*92 net24
*93 net25
*94 net26
*95 net27
*96 net28
*97 net29
*98 net30
*99 net31
*100 net4
*101 net32
*102 net33
*103 net34
*104 net35
*105 net36
*106 net37
*107 net38
*108 net39
*109 net5
*110 net6
*111 net7
*112 net8
*113 net9
*114 net10
*115 net11
*116 net175
*117 net176
*118 net1
*119 la_data_in[0]
*120 la_data_in[10]
*121 la_data_in[11]
*122 la_data_in[12]
*123 la_data_in[13]
*124 la_data_in[14]
*125 la_data_in[15]
*126 la_data_in[16]
*127 la_data_in[17]
*128 la_data_in[18]
*129 la_data_in[19]
*130 la_data_in[1]
*131 la_data_in[20]
*132 la_data_in[21]
*133 la_data_in[22]
*134 la_data_in[23]
*135 la_data_in[24]
*136 la_data_in[25]
*137 la_data_in[26]
*138 la_data_in[27]
*139 la_data_in[28]
*140 la_data_in[29]
*141 la_data_in[2]
*142 la_data_in[30]
*143 la_data_in[31]
*144 la_data_in[32]
*145 la_data_in[33]
*146 la_data_in[34]
*147 la_data_in[35]
*148 la_data_in[36]
*149 la_data_in[37]
*150 la_data_in[38]
*151 la_data_in[39]
*152 la_data_in[3]
*153 la_data_in[40]
*154 la_data_in[41]
*155 la_data_in[42]
*156 la_data_in[43]
*157 la_data_in[44]
*158 la_data_in[45]
*159 la_data_in[46]
*160 la_data_in[47]
*161 la_data_in[48]
*162 la_data_in[49]
*163 la_data_in[4]
*164 la_data_in[50]
*165 la_data_in[51]
*166 la_data_in[52]
*167 la_data_in[53]
*168 la_data_in[54]
*169 la_data_in[55]
*170 la_data_in[56]
*171 la_data_in[57]
*172 la_data_in[58]
*173 la_data_in[59]
*174 la_data_in[5]
*175 la_data_in[60]
*176 la_data_in[61]
*177 la_data_in[62]
*178 la_data_in[63]
*179 la_data_in[6]
*180 la_data_in[7]
*181 la_data_in[8]
*182 la_data_in[9]
*183 net78
*184 net88
*185 net89
*186 net90
*187 net91
*188 net92
*189 net93
*190 net94
*191 net95
*192 net96
*193 net97
*194 net79
*195 net98
*196 net99
*197 net100
*198 net101
*199 net102
*200 net103
*201 net104
*202 net105
*203 net106
*204 net107
*205 net80
*206 net108
*207 net109
*208 net110
*209 net111
*210 net112
*211 net113
*212 net114
*213 net115
*214 net116
*215 net117
*216 net81
*217 net118
*218 net119
*219 net120
*220 net121
*221 net122
*222 net123
*223 net124
*224 net125
*225 net126
*226 net127
*227 net82
*228 net128
*229 net129
*230 net130
*231 net131
*232 net132
*233 net133
*234 net134
*235 net135
*236 net136
*237 net137
*238 net83
*239 net138
*240 net139
*241 net140
*242 net141
*243 net84
*244 net85
*245 net86
*246 net87
*247 la_oenb[0]
*248 la_oenb[10]
*249 la_oenb[11]
*250 la_oenb[12]
*251 la_oenb[13]
*252 la_oenb[14]
*253 la_oenb[15]
*254 la_oenb[16]
*255 la_oenb[17]
*256 la_oenb[18]
*257 la_oenb[19]
*258 la_oenb[1]
*259 la_oenb[20]
*260 la_oenb[21]
*261 la_oenb[22]
*262 la_oenb[23]
*263 la_oenb[24]
*264 la_oenb[25]
*265 la_oenb[26]
*266 la_oenb[27]
*267 la_oenb[28]
*268 la_oenb[29]
*269 la_oenb[2]
*270 la_oenb[30]
*271 la_oenb[31]
*272 la_oenb[32]
*273 la_oenb[33]
*274 la_oenb[34]
*275 la_oenb[35]
*276 la_oenb[36]
*277 la_oenb[37]
*278 la_oenb[38]
*279 la_oenb[39]
*280 la_oenb[3]
*281 la_oenb[40]
*282 la_oenb[41]
*283 la_oenb[42]
*284 la_oenb[43]
*285 la_oenb[44]
*286 la_oenb[45]
*287 la_oenb[46]
*288 la_oenb[47]
*289 la_oenb[48]
*290 la_oenb[49]
*291 la_oenb[4]
*292 la_oenb[50]
*293 la_oenb[51]
*294 la_oenb[52]
*295 la_oenb[53]
*296 la_oenb[54]
*297 la_oenb[55]
*298 la_oenb[56]
*299 la_oenb[57]
*300 la_oenb[58]
*301 la_oenb[59]
*302 la_oenb[5]
*303 la_oenb[60]
*304 la_oenb[61]
*305 la_oenb[62]
*306 la_oenb[63]
*307 la_oenb[6]
*308 la_oenb[7]
*309 la_oenb[8]
*310 la_oenb[9]
*313 wb_clk_i
*314 wb_rst_i
*315 net142
*316 wbs_adr_i[0]
*317 wbs_adr_i[10]
*318 wbs_adr_i[11]
*319 wbs_adr_i[12]
*320 wbs_adr_i[13]
*321 wbs_adr_i[14]
*322 wbs_adr_i[15]
*323 wbs_adr_i[16]
*324 wbs_adr_i[17]
*325 wbs_adr_i[18]
*326 wbs_adr_i[19]
*327 wbs_adr_i[1]
*328 wbs_adr_i[20]
*329 wbs_adr_i[21]
*330 wbs_adr_i[22]
*331 wbs_adr_i[23]
*332 wbs_adr_i[24]
*333 wbs_adr_i[25]
*334 wbs_adr_i[26]
*335 wbs_adr_i[27]
*336 wbs_adr_i[28]
*337 wbs_adr_i[29]
*338 wbs_adr_i[2]
*339 wbs_adr_i[30]
*340 wbs_adr_i[31]
*341 wbs_adr_i[3]
*342 wbs_adr_i[4]
*343 wbs_adr_i[5]
*344 wbs_adr_i[6]
*345 wbs_adr_i[7]
*346 wbs_adr_i[8]
*347 wbs_adr_i[9]
*348 wbs_cyc_i
*349 wbs_dat_i[0]
*350 wbs_dat_i[10]
*351 wbs_dat_i[11]
*352 wbs_dat_i[12]
*353 wbs_dat_i[13]
*354 wbs_dat_i[14]
*355 wbs_dat_i[15]
*356 wbs_dat_i[16]
*357 wbs_dat_i[17]
*358 wbs_dat_i[18]
*359 wbs_dat_i[19]
*360 wbs_dat_i[1]
*361 wbs_dat_i[20]
*362 wbs_dat_i[21]
*363 wbs_dat_i[22]
*364 wbs_dat_i[23]
*365 wbs_dat_i[24]
*366 wbs_dat_i[25]
*367 wbs_dat_i[26]
*368 wbs_dat_i[27]
*369 wbs_dat_i[28]
*370 wbs_dat_i[29]
*371 wbs_dat_i[2]
*372 wbs_dat_i[30]
*373 wbs_dat_i[31]
*374 wbs_dat_i[3]
*375 wbs_dat_i[4]
*376 wbs_dat_i[5]
*377 wbs_dat_i[6]
*378 wbs_dat_i[7]
*379 wbs_dat_i[8]
*380 wbs_dat_i[9]
*381 net143
*382 net153
*383 net154
*384 net155
*385 net156
*386 net157
*387 net158
*388 net159
*389 net160
*390 net161
*391 net162
*392 net144
*393 net163
*394 net164
*395 net165
*396 net166
*397 net167
*398 net168
*399 net169
*400 net170
*401 net171
*402 net172
*403 net145
*404 net173
*405 net174
*406 net146
*407 net147
*408 net148
*409 net149
*410 net150
*411 net151
*412 net152
*413 wbs_sel_i[0]
*414 wbs_sel_i[1]
*415 wbs_sel_i[2]
*416 wbs_sel_i[3]
*417 wbs_stb_i
*418 wbs_we_i
*419 FILLER_0_1001
*420 FILLER_0_1009
*421 FILLER_0_1013
*422 FILLER_0_1017
*423 FILLER_0_102
*424 FILLER_0_1022
*425 FILLER_0_1026
*426 FILLER_0_1031
*427 FILLER_0_1039
*428 FILLER_0_104
*429 FILLER_0_1041
*430 FILLER_0_1046
*431 FILLER_0_1052
*432 FILLER_0_1056
*433 FILLER_0_1061
*434 FILLER_0_1069
*435 FILLER_0_107
*436 FILLER_0_1071
*437 FILLER_0_1076
*438 FILLER_0_1084
*439 FILLER_0_1087
*440 FILLER_0_1092
*441 FILLER_0_1100
*442 FILLER_0_1106
*443 FILLER_0_1114
*444 FILLER_0_1118
*445 FILLER_0_112
*446 FILLER_0_1122
*447 FILLER_0_1127
*448 FILLER_0_1131
*449 FILLER_0_1136
*450 FILLER_0_1144
*451 FILLER_0_1146
*452 FILLER_0_1151
*453 FILLER_0_1157
*454 FILLER_0_1161
*455 FILLER_0_1166
*456 FILLER_0_1174
*457 FILLER_0_1176
*458 FILLER_0_1181
*459 FILLER_0_1189
*460 FILLER_0_1192
*461 FILLER_0_1197
*462 FILLER_0_120
*463 FILLER_0_1205
*464 FILLER_0_1211
*465 FILLER_0_1219
*466 FILLER_0_1223
*467 FILLER_0_1227
*468 FILLER_0_1232
*469 FILLER_0_1236
*470 FILLER_0_1241
*471 FILLER_0_1249
*472 FILLER_0_1251
*473 FILLER_0_1256
*474 FILLER_0_126
*475 FILLER_0_1262
*476 FILLER_0_1266
*477 FILLER_0_1271
*478 FILLER_0_1279
*479 FILLER_0_1281
*480 FILLER_0_1286
*481 FILLER_0_1294
*482 FILLER_0_1297
*483 FILLER_0_1302
*484 FILLER_0_1310
*485 FILLER_0_1316
*486 FILLER_0_1324
*487 FILLER_0_1328
*488 FILLER_0_1332
*489 FILLER_0_1337
*490 FILLER_0_134
*491 FILLER_0_1341
*492 FILLER_0_1346
*493 FILLER_0_1354
*494 FILLER_0_1356
*495 FILLER_0_1361
*496 FILLER_0_1367
*497 FILLER_0_1371
*498 FILLER_0_1376
*499 FILLER_0_138
*500 FILLER_0_1384
*501 FILLER_0_1386
*502 FILLER_0_1391
*503 FILLER_0_1399
*504 FILLER_0_1402
*505 FILLER_0_1407
*506 FILLER_0_1415
*507 FILLER_0_142
*508 FILLER_0_1421
*509 FILLER_0_1429
*510 FILLER_0_1433
*511 FILLER_0_1437
*512 FILLER_0_1442
*513 FILLER_0_1446
*514 FILLER_0_1451
*515 FILLER_0_1459
*516 FILLER_0_1461
*517 FILLER_0_1466
*518 FILLER_0_147
*519 FILLER_0_1472
*520 FILLER_0_1476
*521 FILLER_0_1481
*522 FILLER_0_1489
*523 FILLER_0_1491
*524 FILLER_0_1496
*525 FILLER_0_1504
*526 FILLER_0_1507
*527 FILLER_0_1512
*528 FILLER_0_1520
*529 FILLER_0_1526
*530 FILLER_0_1530
*531 FILLER_0_1536
*532 FILLER_0_1542
*533 FILLER_0_1547
*534 FILLER_0_155
*535 FILLER_0_1553
*536 FILLER_0_1569
*537 FILLER_0_1573
*538 FILLER_0_1577
*539 FILLER_0_159
*540 FILLER_0_161
*541 FILLER_0_166
*542 FILLER_0_174
*543 FILLER_0_177
*544 FILLER_0_182
*545 FILLER_0_190
*546 FILLER_0_196
*547 FILLER_0_2
*548 FILLER_0_204
*549 FILLER_0_208
*550 FILLER_0_212
*551 FILLER_0_217
*552 FILLER_0_221
*553 FILLER_0_226
*554 FILLER_0_234
*555 FILLER_0_236
*556 FILLER_0_241
*557 FILLER_0_247
*558 FILLER_0_251
*559 FILLER_0_256
*560 FILLER_0_264
*561 FILLER_0_266
*562 FILLER_0_271
*563 FILLER_0_279
*564 FILLER_0_282
*565 FILLER_0_287
*566 FILLER_0_295
*567 FILLER_0_301
*568 FILLER_0_309
*569 FILLER_0_313
*570 FILLER_0_317
*571 FILLER_0_322
*572 FILLER_0_326
*573 FILLER_0_331
*574 FILLER_0_339
*575 FILLER_0_34
*576 FILLER_0_341
*577 FILLER_0_346
*578 FILLER_0_352
*579 FILLER_0_356
*580 FILLER_0_361
*581 FILLER_0_369
*582 FILLER_0_37
*583 FILLER_0_371
*584 FILLER_0_376
*585 FILLER_0_384
*586 FILLER_0_387
*587 FILLER_0_392
*588 FILLER_0_400
*589 FILLER_0_406
*590 FILLER_0_414
*591 FILLER_0_418
*592 FILLER_0_422
*593 FILLER_0_427
*594 FILLER_0_431
*595 FILLER_0_436
*596 FILLER_0_444
*597 FILLER_0_446
*598 FILLER_0_45
*599 FILLER_0_451
*600 FILLER_0_457
*601 FILLER_0_461
*602 FILLER_0_466
*603 FILLER_0_474
*604 FILLER_0_476
*605 FILLER_0_481
*606 FILLER_0_489
*607 FILLER_0_49
*608 FILLER_0_492
*609 FILLER_0_497
*610 FILLER_0_505
*611 FILLER_0_51
*612 FILLER_0_511
*613 FILLER_0_519
*614 FILLER_0_523
*615 FILLER_0_527
*616 FILLER_0_532
*617 FILLER_0_536
*618 FILLER_0_541
*619 FILLER_0_549
*620 FILLER_0_551
*621 FILLER_0_556
*622 FILLER_0_56
*623 FILLER_0_562
*624 FILLER_0_566
*625 FILLER_0_571
*626 FILLER_0_575
*627 FILLER_0_581
*628 FILLER_0_589
*629 FILLER_0_593
*630 FILLER_0_597
*631 FILLER_0_602
*632 FILLER_0_606
*633 FILLER_0_611
*634 FILLER_0_619
*635 FILLER_0_621
*636 FILLER_0_626
*637 FILLER_0_632
*638 FILLER_0_636
*639 FILLER_0_64
*640 FILLER_0_641
*641 FILLER_0_649
*642 FILLER_0_651
*643 FILLER_0_656
*644 FILLER_0_664
*645 FILLER_0_667
*646 FILLER_0_672
*647 FILLER_0_68
*648 FILLER_0_680
*649 FILLER_0_686
*650 FILLER_0_694
*651 FILLER_0_698
*652 FILLER_0_702
*653 FILLER_0_707
*654 FILLER_0_711
*655 FILLER_0_716
*656 FILLER_0_72
*657 FILLER_0_724
*658 FILLER_0_726
*659 FILLER_0_731
*660 FILLER_0_737
*661 FILLER_0_741
*662 FILLER_0_746
*663 FILLER_0_754
*664 FILLER_0_756
*665 FILLER_0_761
*666 FILLER_0_769
*667 FILLER_0_772
*668 FILLER_0_777
*669 FILLER_0_785
*670 FILLER_0_791
*671 FILLER_0_799
*672 FILLER_0_80
*673 FILLER_0_803
*674 FILLER_0_807
*675 FILLER_0_812
*676 FILLER_0_816
*677 FILLER_0_821
*678 FILLER_0_829
*679 FILLER_0_831
*680 FILLER_0_836
*681 FILLER_0_842
*682 FILLER_0_846
*683 FILLER_0_851
*684 FILLER_0_859
*685 FILLER_0_86
*686 FILLER_0_861
*687 FILLER_0_866
*688 FILLER_0_874
*689 FILLER_0_877
*690 FILLER_0_882
*691 FILLER_0_890
*692 FILLER_0_896
*693 FILLER_0_904
*694 FILLER_0_908
*695 FILLER_0_912
*696 FILLER_0_917
*697 FILLER_0_921
*698 FILLER_0_926
*699 FILLER_0_934
*700 FILLER_0_936
*701 FILLER_0_941
*702 FILLER_0_947
*703 FILLER_0_951
*704 FILLER_0_956
*705 FILLER_0_964
*706 FILLER_0_966
*707 FILLER_0_971
*708 FILLER_0_979
*709 FILLER_0_982
*710 FILLER_0_987
*711 FILLER_0_995
*712 FILLER_100_101
*713 FILLER_100_1024
*714 FILLER_100_1028
*715 FILLER_100_1031
*716 FILLER_100_105
*717 FILLER_100_108
*718 FILLER_100_1095
*719 FILLER_100_1099
*720 FILLER_100_1102
*721 FILLER_100_1166
*722 FILLER_100_1170
*723 FILLER_100_1173
*724 FILLER_100_1237
*725 FILLER_100_1241
*726 FILLER_100_1244
*727 FILLER_100_1308
*728 FILLER_100_1312
*729 FILLER_100_1315
*730 FILLER_100_1379
*731 FILLER_100_1383
*732 FILLER_100_1386
*733 FILLER_100_1450
*734 FILLER_100_1454
*735 FILLER_100_1457
*736 FILLER_100_1521
*737 FILLER_100_1525
*738 FILLER_100_1528
*739 FILLER_100_1560
*740 FILLER_100_1576
*741 FILLER_100_1580
*742 FILLER_100_172
*743 FILLER_100_176
*744 FILLER_100_179
*745 FILLER_100_2
*746 FILLER_100_243
*747 FILLER_100_247
*748 FILLER_100_250
*749 FILLER_100_314
*750 FILLER_100_318
*751 FILLER_100_321
*752 FILLER_100_34
*753 FILLER_100_37
*754 FILLER_100_385
*755 FILLER_100_389
*756 FILLER_100_392
*757 FILLER_100_456
*758 FILLER_100_460
*759 FILLER_100_463
*760 FILLER_100_527
*761 FILLER_100_531
*762 FILLER_100_534
*763 FILLER_100_598
*764 FILLER_100_602
*765 FILLER_100_605
*766 FILLER_100_669
*767 FILLER_100_673
*768 FILLER_100_676
*769 FILLER_100_740
*770 FILLER_100_744
*771 FILLER_100_747
*772 FILLER_100_811
*773 FILLER_100_815
*774 FILLER_100_818
*775 FILLER_100_882
*776 FILLER_100_886
*777 FILLER_100_889
*778 FILLER_100_953
*779 FILLER_100_957
*780 FILLER_100_960
*781 FILLER_101_1060
*782 FILLER_101_1064
*783 FILLER_101_1067
*784 FILLER_101_1131
*785 FILLER_101_1135
*786 FILLER_101_1138
*787 FILLER_101_1202
*788 FILLER_101_1206
*789 FILLER_101_1209
*790 FILLER_101_1273
*791 FILLER_101_1277
*792 FILLER_101_1280
*793 FILLER_101_1344
*794 FILLER_101_1348
*795 FILLER_101_1351
*796 FILLER_101_137
*797 FILLER_101_141
*798 FILLER_101_1415
*799 FILLER_101_1419
*800 FILLER_101_1422
*801 FILLER_101_144
*802 FILLER_101_1486
*803 FILLER_101_1490
*804 FILLER_101_1493
*805 FILLER_101_1557
*806 FILLER_101_1561
*807 FILLER_101_1564
*808 FILLER_101_1580
*809 FILLER_101_2
*810 FILLER_101_208
*811 FILLER_101_212
*812 FILLER_101_215
*813 FILLER_101_279
*814 FILLER_101_283
*815 FILLER_101_286
*816 FILLER_101_350
*817 FILLER_101_354
*818 FILLER_101_357
*819 FILLER_101_421
*820 FILLER_101_425
*821 FILLER_101_428
*822 FILLER_101_492
*823 FILLER_101_496
*824 FILLER_101_499
*825 FILLER_101_563
*826 FILLER_101_567
*827 FILLER_101_570
*828 FILLER_101_634
*829 FILLER_101_638
*830 FILLER_101_641
*831 FILLER_101_66
*832 FILLER_101_70
*833 FILLER_101_705
*834 FILLER_101_709
*835 FILLER_101_712
*836 FILLER_101_73
*837 FILLER_101_776
*838 FILLER_101_780
*839 FILLER_101_783
*840 FILLER_101_847
*841 FILLER_101_851
*842 FILLER_101_854
*843 FILLER_101_918
*844 FILLER_101_922
*845 FILLER_101_925
*846 FILLER_101_989
*847 FILLER_101_993
*848 FILLER_101_996
*849 FILLER_102_101
*850 FILLER_102_1024
*851 FILLER_102_1028
*852 FILLER_102_1031
*853 FILLER_102_105
*854 FILLER_102_108
*855 FILLER_102_1095
*856 FILLER_102_1099
*857 FILLER_102_1102
*858 FILLER_102_1166
*859 FILLER_102_1170
*860 FILLER_102_1173
*861 FILLER_102_1237
*862 FILLER_102_1241
*863 FILLER_102_1244
*864 FILLER_102_1308
*865 FILLER_102_1312
*866 FILLER_102_1315
*867 FILLER_102_1379
*868 FILLER_102_1383
*869 FILLER_102_1386
*870 FILLER_102_1450
*871 FILLER_102_1454
*872 FILLER_102_1457
*873 FILLER_102_1521
*874 FILLER_102_1525
*875 FILLER_102_1528
*876 FILLER_102_1560
*877 FILLER_102_1576
*878 FILLER_102_1580
*879 FILLER_102_172
*880 FILLER_102_176
*881 FILLER_102_179
*882 FILLER_102_2
*883 FILLER_102_243
*884 FILLER_102_247
*885 FILLER_102_250
*886 FILLER_102_314
*887 FILLER_102_318
*888 FILLER_102_321
*889 FILLER_102_34
*890 FILLER_102_37
*891 FILLER_102_385
*892 FILLER_102_389
*893 FILLER_102_392
*894 FILLER_102_456
*895 FILLER_102_460
*896 FILLER_102_463
*897 FILLER_102_527
*898 FILLER_102_531
*899 FILLER_102_534
*900 FILLER_102_598
*901 FILLER_102_602
*902 FILLER_102_605
*903 FILLER_102_669
*904 FILLER_102_673
*905 FILLER_102_676
*906 FILLER_102_740
*907 FILLER_102_744
*908 FILLER_102_747
*909 FILLER_102_811
*910 FILLER_102_815
*911 FILLER_102_818
*912 FILLER_102_882
*913 FILLER_102_886
*914 FILLER_102_889
*915 FILLER_102_953
*916 FILLER_102_957
*917 FILLER_102_960
*918 FILLER_103_1060
*919 FILLER_103_1064
*920 FILLER_103_1067
*921 FILLER_103_1131
*922 FILLER_103_1135
*923 FILLER_103_1138
*924 FILLER_103_1202
*925 FILLER_103_1206
*926 FILLER_103_1209
*927 FILLER_103_1273
*928 FILLER_103_1277
*929 FILLER_103_1280
*930 FILLER_103_1344
*931 FILLER_103_1348
*932 FILLER_103_1351
*933 FILLER_103_137
*934 FILLER_103_141
*935 FILLER_103_1415
*936 FILLER_103_1419
*937 FILLER_103_1422
*938 FILLER_103_144
*939 FILLER_103_1486
*940 FILLER_103_1490
*941 FILLER_103_1493
*942 FILLER_103_1557
*943 FILLER_103_1561
*944 FILLER_103_1564
*945 FILLER_103_1580
*946 FILLER_103_2
*947 FILLER_103_208
*948 FILLER_103_212
*949 FILLER_103_215
*950 FILLER_103_279
*951 FILLER_103_283
*952 FILLER_103_286
*953 FILLER_103_350
*954 FILLER_103_354
*955 FILLER_103_357
*956 FILLER_103_421
*957 FILLER_103_425
*958 FILLER_103_428
*959 FILLER_103_492
*960 FILLER_103_496
*961 FILLER_103_499
*962 FILLER_103_563
*963 FILLER_103_567
*964 FILLER_103_570
*965 FILLER_103_634
*966 FILLER_103_638
*967 FILLER_103_641
*968 FILLER_103_66
*969 FILLER_103_70
*970 FILLER_103_705
*971 FILLER_103_709
*972 FILLER_103_712
*973 FILLER_103_73
*974 FILLER_103_776
*975 FILLER_103_780
*976 FILLER_103_783
*977 FILLER_103_847
*978 FILLER_103_851
*979 FILLER_103_854
*980 FILLER_103_918
*981 FILLER_103_922
*982 FILLER_103_925
*983 FILLER_103_989
*984 FILLER_103_993
*985 FILLER_103_996
*986 FILLER_104_101
*987 FILLER_104_1024
*988 FILLER_104_1028
*989 FILLER_104_1031
*990 FILLER_104_105
*991 FILLER_104_108
*992 FILLER_104_1095
*993 FILLER_104_1099
*994 FILLER_104_1102
*995 FILLER_104_1166
*996 FILLER_104_1170
*997 FILLER_104_1173
*998 FILLER_104_1237
*999 FILLER_104_1241
*1000 FILLER_104_1244
*1001 FILLER_104_1308
*1002 FILLER_104_1312
*1003 FILLER_104_1315
*1004 FILLER_104_1379
*1005 FILLER_104_1383
*1006 FILLER_104_1386
*1007 FILLER_104_1450
*1008 FILLER_104_1454
*1009 FILLER_104_1457
*1010 FILLER_104_1521
*1011 FILLER_104_1525
*1012 FILLER_104_1528
*1013 FILLER_104_1560
*1014 FILLER_104_1576
*1015 FILLER_104_1580
*1016 FILLER_104_172
*1017 FILLER_104_176
*1018 FILLER_104_179
*1019 FILLER_104_2
*1020 FILLER_104_243
*1021 FILLER_104_247
*1022 FILLER_104_250
*1023 FILLER_104_314
*1024 FILLER_104_318
*1025 FILLER_104_321
*1026 FILLER_104_34
*1027 FILLER_104_37
*1028 FILLER_104_385
*1029 FILLER_104_389
*1030 FILLER_104_392
*1031 FILLER_104_456
*1032 FILLER_104_460
*1033 FILLER_104_463
*1034 FILLER_104_527
*1035 FILLER_104_531
*1036 FILLER_104_534
*1037 FILLER_104_598
*1038 FILLER_104_602
*1039 FILLER_104_605
*1040 FILLER_104_669
*1041 FILLER_104_673
*1042 FILLER_104_676
*1043 FILLER_104_740
*1044 FILLER_104_744
*1045 FILLER_104_747
*1046 FILLER_104_811
*1047 FILLER_104_815
*1048 FILLER_104_818
*1049 FILLER_104_882
*1050 FILLER_104_886
*1051 FILLER_104_889
*1052 FILLER_104_953
*1053 FILLER_104_957
*1054 FILLER_104_960
*1055 FILLER_105_1060
*1056 FILLER_105_1064
*1057 FILLER_105_1067
*1058 FILLER_105_1131
*1059 FILLER_105_1135
*1060 FILLER_105_1138
*1061 FILLER_105_1202
*1062 FILLER_105_1206
*1063 FILLER_105_1209
*1064 FILLER_105_1273
*1065 FILLER_105_1277
*1066 FILLER_105_1280
*1067 FILLER_105_1344
*1068 FILLER_105_1348
*1069 FILLER_105_1351
*1070 FILLER_105_137
*1071 FILLER_105_141
*1072 FILLER_105_1415
*1073 FILLER_105_1419
*1074 FILLER_105_1422
*1075 FILLER_105_144
*1076 FILLER_105_1486
*1077 FILLER_105_1490
*1078 FILLER_105_1493
*1079 FILLER_105_1557
*1080 FILLER_105_1561
*1081 FILLER_105_1564
*1082 FILLER_105_1580
*1083 FILLER_105_2
*1084 FILLER_105_208
*1085 FILLER_105_212
*1086 FILLER_105_215
*1087 FILLER_105_279
*1088 FILLER_105_283
*1089 FILLER_105_286
*1090 FILLER_105_350
*1091 FILLER_105_354
*1092 FILLER_105_357
*1093 FILLER_105_421
*1094 FILLER_105_425
*1095 FILLER_105_428
*1096 FILLER_105_492
*1097 FILLER_105_496
*1098 FILLER_105_499
*1099 FILLER_105_563
*1100 FILLER_105_567
*1101 FILLER_105_570
*1102 FILLER_105_634
*1103 FILLER_105_638
*1104 FILLER_105_641
*1105 FILLER_105_66
*1106 FILLER_105_70
*1107 FILLER_105_705
*1108 FILLER_105_709
*1109 FILLER_105_712
*1110 FILLER_105_73
*1111 FILLER_105_776
*1112 FILLER_105_780
*1113 FILLER_105_783
*1114 FILLER_105_847
*1115 FILLER_105_851
*1116 FILLER_105_854
*1117 FILLER_105_918
*1118 FILLER_105_922
*1119 FILLER_105_925
*1120 FILLER_105_989
*1121 FILLER_105_993
*1122 FILLER_105_996
*1123 FILLER_106_101
*1124 FILLER_106_1024
*1125 FILLER_106_1028
*1126 FILLER_106_1031
*1127 FILLER_106_105
*1128 FILLER_106_108
*1129 FILLER_106_1095
*1130 FILLER_106_1099
*1131 FILLER_106_1102
*1132 FILLER_106_1166
*1133 FILLER_106_1170
*1134 FILLER_106_1173
*1135 FILLER_106_1237
*1136 FILLER_106_1241
*1137 FILLER_106_1244
*1138 FILLER_106_1308
*1139 FILLER_106_1312
*1140 FILLER_106_1315
*1141 FILLER_106_1379
*1142 FILLER_106_1383
*1143 FILLER_106_1386
*1144 FILLER_106_1450
*1145 FILLER_106_1454
*1146 FILLER_106_1457
*1147 FILLER_106_1521
*1148 FILLER_106_1525
*1149 FILLER_106_1528
*1150 FILLER_106_1560
*1151 FILLER_106_1576
*1152 FILLER_106_1580
*1153 FILLER_106_172
*1154 FILLER_106_176
*1155 FILLER_106_179
*1156 FILLER_106_2
*1157 FILLER_106_243
*1158 FILLER_106_247
*1159 FILLER_106_250
*1160 FILLER_106_314
*1161 FILLER_106_318
*1162 FILLER_106_321
*1163 FILLER_106_34
*1164 FILLER_106_37
*1165 FILLER_106_385
*1166 FILLER_106_389
*1167 FILLER_106_392
*1168 FILLER_106_456
*1169 FILLER_106_460
*1170 FILLER_106_463
*1171 FILLER_106_527
*1172 FILLER_106_531
*1173 FILLER_106_534
*1174 FILLER_106_598
*1175 FILLER_106_602
*1176 FILLER_106_605
*1177 FILLER_106_669
*1178 FILLER_106_673
*1179 FILLER_106_676
*1180 FILLER_106_740
*1181 FILLER_106_744
*1182 FILLER_106_747
*1183 FILLER_106_811
*1184 FILLER_106_815
*1185 FILLER_106_818
*1186 FILLER_106_882
*1187 FILLER_106_886
*1188 FILLER_106_889
*1189 FILLER_106_953
*1190 FILLER_106_957
*1191 FILLER_106_960
*1192 FILLER_107_1060
*1193 FILLER_107_1064
*1194 FILLER_107_1067
*1195 FILLER_107_1131
*1196 FILLER_107_1135
*1197 FILLER_107_1138
*1198 FILLER_107_1202
*1199 FILLER_107_1206
*1200 FILLER_107_1209
*1201 FILLER_107_1273
*1202 FILLER_107_1277
*1203 FILLER_107_1280
*1204 FILLER_107_1344
*1205 FILLER_107_1348
*1206 FILLER_107_1351
*1207 FILLER_107_137
*1208 FILLER_107_141
*1209 FILLER_107_1415
*1210 FILLER_107_1419
*1211 FILLER_107_1422
*1212 FILLER_107_144
*1213 FILLER_107_1486
*1214 FILLER_107_1490
*1215 FILLER_107_1493
*1216 FILLER_107_1557
*1217 FILLER_107_1561
*1218 FILLER_107_1564
*1219 FILLER_107_1580
*1220 FILLER_107_2
*1221 FILLER_107_208
*1222 FILLER_107_212
*1223 FILLER_107_215
*1224 FILLER_107_279
*1225 FILLER_107_283
*1226 FILLER_107_286
*1227 FILLER_107_350
*1228 FILLER_107_354
*1229 FILLER_107_357
*1230 FILLER_107_421
*1231 FILLER_107_425
*1232 FILLER_107_428
*1233 FILLER_107_492
*1234 FILLER_107_496
*1235 FILLER_107_499
*1236 FILLER_107_563
*1237 FILLER_107_567
*1238 FILLER_107_570
*1239 FILLER_107_634
*1240 FILLER_107_638
*1241 FILLER_107_641
*1242 FILLER_107_66
*1243 FILLER_107_70
*1244 FILLER_107_705
*1245 FILLER_107_709
*1246 FILLER_107_712
*1247 FILLER_107_73
*1248 FILLER_107_776
*1249 FILLER_107_780
*1250 FILLER_107_783
*1251 FILLER_107_847
*1252 FILLER_107_851
*1253 FILLER_107_854
*1254 FILLER_107_918
*1255 FILLER_107_922
*1256 FILLER_107_925
*1257 FILLER_107_989
*1258 FILLER_107_993
*1259 FILLER_107_996
*1260 FILLER_108_101
*1261 FILLER_108_1024
*1262 FILLER_108_1028
*1263 FILLER_108_1031
*1264 FILLER_108_105
*1265 FILLER_108_108
*1266 FILLER_108_1095
*1267 FILLER_108_1099
*1268 FILLER_108_1102
*1269 FILLER_108_1166
*1270 FILLER_108_1170
*1271 FILLER_108_1173
*1272 FILLER_108_1237
*1273 FILLER_108_1241
*1274 FILLER_108_1244
*1275 FILLER_108_1308
*1276 FILLER_108_1312
*1277 FILLER_108_1315
*1278 FILLER_108_1379
*1279 FILLER_108_1383
*1280 FILLER_108_1386
*1281 FILLER_108_1450
*1282 FILLER_108_1454
*1283 FILLER_108_1457
*1284 FILLER_108_1521
*1285 FILLER_108_1525
*1286 FILLER_108_1528
*1287 FILLER_108_1560
*1288 FILLER_108_1576
*1289 FILLER_108_1580
*1290 FILLER_108_172
*1291 FILLER_108_176
*1292 FILLER_108_179
*1293 FILLER_108_2
*1294 FILLER_108_243
*1295 FILLER_108_247
*1296 FILLER_108_250
*1297 FILLER_108_314
*1298 FILLER_108_318
*1299 FILLER_108_321
*1300 FILLER_108_34
*1301 FILLER_108_37
*1302 FILLER_108_385
*1303 FILLER_108_389
*1304 FILLER_108_392
*1305 FILLER_108_456
*1306 FILLER_108_460
*1307 FILLER_108_463
*1308 FILLER_108_527
*1309 FILLER_108_531
*1310 FILLER_108_534
*1311 FILLER_108_598
*1312 FILLER_108_602
*1313 FILLER_108_605
*1314 FILLER_108_669
*1315 FILLER_108_673
*1316 FILLER_108_676
*1317 FILLER_108_740
*1318 FILLER_108_744
*1319 FILLER_108_747
*1320 FILLER_108_811
*1321 FILLER_108_815
*1322 FILLER_108_818
*1323 FILLER_108_882
*1324 FILLER_108_886
*1325 FILLER_108_889
*1326 FILLER_108_953
*1327 FILLER_108_957
*1328 FILLER_108_960
*1329 FILLER_109_1060
*1330 FILLER_109_1064
*1331 FILLER_109_1067
*1332 FILLER_109_1131
*1333 FILLER_109_1135
*1334 FILLER_109_1138
*1335 FILLER_109_1202
*1336 FILLER_109_1206
*1337 FILLER_109_1209
*1338 FILLER_109_1273
*1339 FILLER_109_1277
*1340 FILLER_109_1280
*1341 FILLER_109_1344
*1342 FILLER_109_1348
*1343 FILLER_109_1351
*1344 FILLER_109_137
*1345 FILLER_109_141
*1346 FILLER_109_1415
*1347 FILLER_109_1419
*1348 FILLER_109_1422
*1349 FILLER_109_144
*1350 FILLER_109_1486
*1351 FILLER_109_1490
*1352 FILLER_109_1493
*1353 FILLER_109_1557
*1354 FILLER_109_1561
*1355 FILLER_109_1564
*1356 FILLER_109_1580
*1357 FILLER_109_2
*1358 FILLER_109_208
*1359 FILLER_109_212
*1360 FILLER_109_215
*1361 FILLER_109_279
*1362 FILLER_109_283
*1363 FILLER_109_286
*1364 FILLER_109_350
*1365 FILLER_109_354
*1366 FILLER_109_357
*1367 FILLER_109_421
*1368 FILLER_109_425
*1369 FILLER_109_428
*1370 FILLER_109_492
*1371 FILLER_109_496
*1372 FILLER_109_499
*1373 FILLER_109_563
*1374 FILLER_109_567
*1375 FILLER_109_570
*1376 FILLER_109_634
*1377 FILLER_109_638
*1378 FILLER_109_641
*1379 FILLER_109_66
*1380 FILLER_109_70
*1381 FILLER_109_705
*1382 FILLER_109_709
*1383 FILLER_109_712
*1384 FILLER_109_73
*1385 FILLER_109_776
*1386 FILLER_109_780
*1387 FILLER_109_783
*1388 FILLER_109_847
*1389 FILLER_109_851
*1390 FILLER_109_854
*1391 FILLER_109_918
*1392 FILLER_109_922
*1393 FILLER_109_925
*1394 FILLER_109_989
*1395 FILLER_109_993
*1396 FILLER_109_996
*1397 FILLER_10_101
*1398 FILLER_10_1024
*1399 FILLER_10_1028
*1400 FILLER_10_1031
*1401 FILLER_10_105
*1402 FILLER_10_108
*1403 FILLER_10_1095
*1404 FILLER_10_1099
*1405 FILLER_10_1102
*1406 FILLER_10_1166
*1407 FILLER_10_1170
*1408 FILLER_10_1173
*1409 FILLER_10_1237
*1410 FILLER_10_1241
*1411 FILLER_10_1244
*1412 FILLER_10_1308
*1413 FILLER_10_1312
*1414 FILLER_10_1315
*1415 FILLER_10_1379
*1416 FILLER_10_1383
*1417 FILLER_10_1386
*1418 FILLER_10_1450
*1419 FILLER_10_1454
*1420 FILLER_10_1457
*1421 FILLER_10_1521
*1422 FILLER_10_1525
*1423 FILLER_10_1528
*1424 FILLER_10_1560
*1425 FILLER_10_1576
*1426 FILLER_10_1580
*1427 FILLER_10_172
*1428 FILLER_10_176
*1429 FILLER_10_179
*1430 FILLER_10_2
*1431 FILLER_10_243
*1432 FILLER_10_247
*1433 FILLER_10_250
*1434 FILLER_10_314
*1435 FILLER_10_318
*1436 FILLER_10_321
*1437 FILLER_10_34
*1438 FILLER_10_37
*1439 FILLER_10_385
*1440 FILLER_10_389
*1441 FILLER_10_392
*1442 FILLER_10_456
*1443 FILLER_10_460
*1444 FILLER_10_463
*1445 FILLER_10_527
*1446 FILLER_10_531
*1447 FILLER_10_534
*1448 FILLER_10_598
*1449 FILLER_10_602
*1450 FILLER_10_605
*1451 FILLER_10_669
*1452 FILLER_10_673
*1453 FILLER_10_676
*1454 FILLER_10_740
*1455 FILLER_10_744
*1456 FILLER_10_747
*1457 FILLER_10_811
*1458 FILLER_10_815
*1459 FILLER_10_818
*1460 FILLER_10_882
*1461 FILLER_10_886
*1462 FILLER_10_889
*1463 FILLER_10_953
*1464 FILLER_10_957
*1465 FILLER_10_960
*1466 FILLER_110_101
*1467 FILLER_110_1024
*1468 FILLER_110_1028
*1469 FILLER_110_1031
*1470 FILLER_110_105
*1471 FILLER_110_108
*1472 FILLER_110_1095
*1473 FILLER_110_1099
*1474 FILLER_110_1102
*1475 FILLER_110_1166
*1476 FILLER_110_1170
*1477 FILLER_110_1173
*1478 FILLER_110_1237
*1479 FILLER_110_1241
*1480 FILLER_110_1244
*1481 FILLER_110_1308
*1482 FILLER_110_1312
*1483 FILLER_110_1315
*1484 FILLER_110_1379
*1485 FILLER_110_1383
*1486 FILLER_110_1386
*1487 FILLER_110_1450
*1488 FILLER_110_1454
*1489 FILLER_110_1457
*1490 FILLER_110_1521
*1491 FILLER_110_1525
*1492 FILLER_110_1528
*1493 FILLER_110_1560
*1494 FILLER_110_1576
*1495 FILLER_110_1580
*1496 FILLER_110_172
*1497 FILLER_110_176
*1498 FILLER_110_179
*1499 FILLER_110_2
*1500 FILLER_110_243
*1501 FILLER_110_247
*1502 FILLER_110_250
*1503 FILLER_110_314
*1504 FILLER_110_318
*1505 FILLER_110_321
*1506 FILLER_110_34
*1507 FILLER_110_37
*1508 FILLER_110_385
*1509 FILLER_110_389
*1510 FILLER_110_392
*1511 FILLER_110_456
*1512 FILLER_110_460
*1513 FILLER_110_463
*1514 FILLER_110_527
*1515 FILLER_110_531
*1516 FILLER_110_534
*1517 FILLER_110_598
*1518 FILLER_110_602
*1519 FILLER_110_605
*1520 FILLER_110_669
*1521 FILLER_110_673
*1522 FILLER_110_676
*1523 FILLER_110_740
*1524 FILLER_110_744
*1525 FILLER_110_747
*1526 FILLER_110_811
*1527 FILLER_110_815
*1528 FILLER_110_818
*1529 FILLER_110_882
*1530 FILLER_110_886
*1531 FILLER_110_889
*1532 FILLER_110_953
*1533 FILLER_110_957
*1534 FILLER_110_960
*1535 FILLER_111_1060
*1536 FILLER_111_1064
*1537 FILLER_111_1067
*1538 FILLER_111_1131
*1539 FILLER_111_1135
*1540 FILLER_111_1138
*1541 FILLER_111_1202
*1542 FILLER_111_1206
*1543 FILLER_111_1209
*1544 FILLER_111_1273
*1545 FILLER_111_1277
*1546 FILLER_111_1280
*1547 FILLER_111_1344
*1548 FILLER_111_1348
*1549 FILLER_111_1351
*1550 FILLER_111_137
*1551 FILLER_111_141
*1552 FILLER_111_1415
*1553 FILLER_111_1419
*1554 FILLER_111_1422
*1555 FILLER_111_144
*1556 FILLER_111_1486
*1557 FILLER_111_1490
*1558 FILLER_111_1493
*1559 FILLER_111_1557
*1560 FILLER_111_1561
*1561 FILLER_111_1564
*1562 FILLER_111_1580
*1563 FILLER_111_2
*1564 FILLER_111_208
*1565 FILLER_111_212
*1566 FILLER_111_215
*1567 FILLER_111_279
*1568 FILLER_111_283
*1569 FILLER_111_286
*1570 FILLER_111_350
*1571 FILLER_111_354
*1572 FILLER_111_357
*1573 FILLER_111_421
*1574 FILLER_111_425
*1575 FILLER_111_428
*1576 FILLER_111_492
*1577 FILLER_111_496
*1578 FILLER_111_499
*1579 FILLER_111_563