*SPEF "ieee 1481-1999"
*DESIGN "macro_tap"
*DATE "11:11:11 Fri 11 11, 1111"
*VENDOR "OpenRCX"
*PROGRAM "Parallel Extraction"
*VERSION "1.0"
*DESIGN_FLOW "NAME_SCOPE LOCAL" "PIN_CAP NONE"
*DIVIDER /
*DELIMITER :
*BUS_DELIMITER []
*T_UNIT 1 NS
*C_UNIT 1 PF
*R_UNIT 1 OHM
*L_UNIT 1 HENRY

*NAME_MAP
*1 io_active
*2 io_in[0]
*3 io_in[10]
*4 io_in[11]
*5 io_in[12]
*6 io_in[13]
*7 io_in[14]
*8 io_in[15]
*9 io_in[16]
*10 io_in[17]
*11 io_in[18]
*12 io_in[19]
*13 io_in[1]
*14 io_in[20]
*15 io_in[21]
*16 io_in[22]
*17 io_in[23]
*18 io_in[24]
*19 io_in[25]
*20 io_in[26]
*21 io_in[27]
*22 io_in[28]
*23 io_in[29]
*24 io_in[2]
*25 io_in[30]
*26 io_in[31]
*27 io_in[32]
*28 io_in[33]
*29 io_in[34]
*30 io_in[35]
*31 io_in[36]
*32 io_in[37]
*33 io_in[3]
*34 io_in[4]
*35 io_in[5]
*36 io_in[6]
*37 io_in[7]
*38 io_in[8]
*39 io_in[9]
*40 net98
*41 net108
*42 net109
*43 net110
*44 net111
*45 net112
*46 net113
*47 net114
*48 net115
*49 net116
*50 net117
*51 net99
*52 net118
*53 net119
*54 net120
*55 net121
*56 net122
*57 net123
*58 net124
*59 net125
*60 net126
*61 net127
*62 net100
*63 net128
*64 net129
*65 net130
*66 net131
*67 net132
*68 net133
*69 net134
*70 net135
*71 net101
*72 net102
*73 net103
*74 net104
*75 net105
*76 net106
*77 net107
*78 io_out[0]
*79 io_out[10]
*80 io_out[11]
*81 io_out[12]
*82 io_out[13]
*83 io_out[14]
*84 io_out[15]
*85 io_out[16]
*86 io_out[17]
*87 net139
*88 net140
*89 net136
*90 net141
*91 net142
*92 net143
*93 net144
*94 net145
*95 net146
*96 net147
*97 net148
*98 net149
*99 net150
*100 net137
*101 net151
*102 net152
*103 net153
*104 net154
*105 net155
*106 net156
*107 net157
*108 net158
*109 net138
*110 io_out[4]
*111 io_out[5]
*112 io_out[6]
*113 io_out[7]
*114 io_out[8]
*115 io_out[9]
*116 net159
*117 net160
*118 net161
*119 la_data_in[0]
*120 la_data_in[10]
*121 la_data_in[11]
*122 la_data_in[12]
*123 la_data_in[13]
*124 la_data_in[14]
*125 la_data_in[15]
*126 la_data_in[16]
*127 la_data_in[17]
*128 la_data_in[18]
*129 la_data_in[19]
*130 la_data_in[1]
*131 la_data_in[20]
*132 la_data_in[21]
*133 la_data_in[22]
*134 la_data_in[23]
*135 la_data_in[24]
*136 la_data_in[25]
*137 la_data_in[26]
*138 la_data_in[27]
*139 la_data_in[28]
*140 la_data_in[29]
*141 la_data_in[2]
*142 la_data_in[30]
*143 la_data_in[31]
*144 la_data_in[32]
*145 la_data_in[33]
*146 la_data_in[34]
*147 la_data_in[35]
*148 la_data_in[36]
*149 la_data_in[37]
*150 la_data_in[38]
*151 la_data_in[39]
*152 la_data_in[3]
*153 la_data_in[40]
*154 la_data_in[41]
*155 la_data_in[42]
*156 la_data_in[43]
*157 la_data_in[44]
*158 la_data_in[45]
*159 la_data_in[46]
*160 la_data_in[47]
*161 la_data_in[48]
*162 la_data_in[49]
*163 la_data_in[4]
*164 la_data_in[50]
*165 la_data_in[51]
*166 la_data_in[52]
*167 la_data_in[53]
*168 la_data_in[54]
*169 la_data_in[55]
*170 la_data_in[56]
*171 la_data_in[57]
*172 la_data_in[58]
*173 la_data_in[59]
*174 la_data_in[5]
*175 la_data_in[60]
*176 la_data_in[61]
*177 la_data_in[62]
*178 la_data_in[63]
*179 la_data_in[6]
*180 la_data_in[7]
*181 la_data_in[8]
*182 la_data_in[9]
*183 net162
*184 net172
*185 net173
*186 net174
*187 net175
*188 net176
*189 net177
*190 net178
*191 net179
*192 net180
*193 net181
*194 net163
*195 net182
*196 net183
*197 net184
*198 net185
*199 net186
*200 net187
*201 net188
*202 net189
*203 net190
*204 net191
*205 net164
*206 net192
*207 net193
*208 net194
*209 net195
*210 net196
*211 net197
*212 net37
*213 net38
*214 net39
*215 net40
*216 net165
*217 net41
*218 net42
*219 net43
*220 net44
*221 net45
*222 net46
*223 net47
*224 net48
*225 net49
*226 net50
*227 net166
*228 net51
*229 net52
*230 net53
*231 net54
*232 net55
*233 net56
*234 net57
*235 net58
*236 net59
*237 net60
*238 net167
*239 net61
*240 net62
*241 net63
*242 net64
*243 net168
*244 net169
*245 net170
*246 net171
*247 la_oenb[0]
*248 la_oenb[10]
*249 la_oenb[11]
*250 la_oenb[12]
*251 la_oenb[13]
*252 la_oenb[14]
*253 la_oenb[15]
*254 la_oenb[16]
*255 la_oenb[17]
*256 la_oenb[18]
*257 la_oenb[19]
*258 la_oenb[1]
*259 la_oenb[20]
*260 la_oenb[21]
*261 la_oenb[22]
*262 la_oenb[23]
*263 la_oenb[24]
*264 la_oenb[25]
*265 la_oenb[26]
*266 la_oenb[27]
*267 la_oenb[28]
*268 la_oenb[29]
*269 la_oenb[2]
*270 la_oenb[30]
*271 la_oenb[31]
*272 la_oenb[32]
*273 la_oenb[33]
*274 la_oenb[34]
*275 la_oenb[35]
*276 la_oenb[36]
*277 la_oenb[37]
*278 la_oenb[38]
*279 la_oenb[39]
*280 la_oenb[3]
*281 la_oenb[40]
*282 la_oenb[41]
*283 la_oenb[42]
*284 la_oenb[43]
*285 la_oenb[44]
*286 la_oenb[45]
*287 la_oenb[46]
*288 la_oenb[47]
*289 la_oenb[48]
*290 la_oenb[49]
*291 la_oenb[4]
*292 la_oenb[50]
*293 la_oenb[51]
*294 la_oenb[52]
*295 la_oenb[53]
*296 la_oenb[54]
*297 la_oenb[55]
*298 la_oenb[56]
*299 la_oenb[57]
*300 la_oenb[58]
*301 la_oenb[59]
*302 la_oenb[5]
*303 la_oenb[60]
*304 la_oenb[61]
*305 la_oenb[62]
*306 la_oenb[63]
*307 la_oenb[6]
*308 la_oenb[7]
*309 la_oenb[8]
*310 la_oenb[9]
*313 wb_clk_i
*314 wb_rst_i
*315 net65
*316 wbs_adr_i[0]
*317 wbs_adr_i[10]
*318 wbs_adr_i[11]
*319 wbs_adr_i[12]
*320 wbs_adr_i[13]
*321 wbs_adr_i[14]
*322 wbs_adr_i[15]
*323 wbs_adr_i[16]
*324 wbs_adr_i[17]
*325 wbs_adr_i[18]
*326 wbs_adr_i[19]
*327 wbs_adr_i[1]
*328 wbs_adr_i[20]
*329 wbs_adr_i[21]
*330 wbs_adr_i[22]
*331 wbs_adr_i[23]
*332 wbs_adr_i[24]
*333 wbs_adr_i[25]
*334 wbs_adr_i[26]
*335 wbs_adr_i[27]
*336 wbs_adr_i[28]
*337 wbs_adr_i[29]
*338 wbs_adr_i[2]
*339 wbs_adr_i[30]
*340 wbs_adr_i[31]
*341 wbs_adr_i[3]
*342 wbs_adr_i[4]
*343 wbs_adr_i[5]
*344 wbs_adr_i[6]
*345 wbs_adr_i[7]
*346 wbs_adr_i[8]
*347 wbs_adr_i[9]
*348 wbs_cyc_i
*349 wbs_dat_i[0]
*350 wbs_dat_i[10]
*351 wbs_dat_i[11]
*352 wbs_dat_i[12]
*353 wbs_dat_i[13]
*354 wbs_dat_i[14]
*355 wbs_dat_i[15]
*356 wbs_dat_i[16]
*357 wbs_dat_i[17]
*358 wbs_dat_i[18]
*359 wbs_dat_i[19]
*360 wbs_dat_i[1]
*361 wbs_dat_i[20]
*362 wbs_dat_i[21]
*363 wbs_dat_i[22]
*364 wbs_dat_i[23]
*365 wbs_dat_i[24]
*366 wbs_dat_i[25]
*367 wbs_dat_i[26]
*368 wbs_dat_i[27]
*369 wbs_dat_i[28]
*370 wbs_dat_i[29]
*371 wbs_dat_i[2]
*372 wbs_dat_i[30]
*373 wbs_dat_i[31]
*374 wbs_dat_i[3]
*375 wbs_dat_i[4]
*376 wbs_dat_i[5]
*377 wbs_dat_i[6]
*378 wbs_dat_i[7]
*379 wbs_dat_i[8]
*380 wbs_dat_i[9]
*381 net66
*382 net76
*383 net77
*384 net78
*385 net79
*386 net80
*387 net81
*388 net82
*389 net83
*390 net84
*391 net85
*392 net67
*393 net86
*394 net87
*395 net88
*396 net89
*397 net90
*398 net91
*399 net92
*400 net93
*401 net94
*402 net95
*403 net68
*404 net96
*405 net97
*406 net69
*407 net70
*408 net71
*409 net72
*410 net73
*411 net74
*412 net75
*413 wbs_sel_i[0]
*414 wbs_sel_i[1]
*415 wbs_sel_i[2]
*416 wbs_sel_i[3]
*417 wbs_stb_i
*418 wbs_we_i
*419 _000_
*420 _001_
*421 _002_
*422 _003_
*423 _004_
*424 _005_
*425 _006_
*426 _007_
*427 _008_
*428 _009_
*429 _010_
*430 _011_
*431 _012_
*432 _013_
*433 _014_
*434 _015_
*435 _016_
*436 _017_
*437 _018_
*438 _019_
*439 _020_
*440 _021_
*441 _022_
*442 _023_
*443 _024_
*444 _025_
*445 _026_
*446 _027_
*447 _028_
*448 _029_
*449 _030_
*450 _031_
*451 _032_
*452 _033_
*453 _034_
*454 _035_
*455 _036_
*456 _037_
*457 _038_
*458 _039_
*459 _040_
*460 _041_
*461 _042_
*462 _043_
*463 _044_
*464 _045_
*465 _046_
*466 _047_
*467 _048_
*468 _049_
*469 _050_
*470 _051_
*471 _052_
*472 _053_
*473 _054_
*474 _055_
*475 _056_
*476 _057_
*477 _058_
*478 _059_
*479 _060_
*480 _061_
*481 _062_
*482 _063_
*483 _064_
*484 _065_
*485 _066_
*486 _067_
*487 _068_
*488 _069_
*489 _070_
*490 _071_
*491 _072_
*492 _073_
*493 _074_
*494 _075_
*495 _076_
*496 _077_
*497 _078_
*498 _079_
*499 _080_
*500 _081_
*501 _082_
*502 _083_
*503 _084_
*504 _085_
*505 _086_
*506 _087_
*507 _088_
*508 _089_
*509 _090_
*510 _091_
*511 _092_
*512 _093_
*513 _094_
*514 _095_
*515 _096_
*516 _097_
*517 _098_
*518 _099_
*519 _100_
*520 _101_
*521 _102_
*522 _103_
*523 _104_
*524 _105_
*525 _106_
*526 _107_
*527 _108_
*528 _109_
*529 _110_
*530 _111_
*531 _112_
*532 _113_
*533 _114_
*534 _115_
*535 _116_
*536 _117_
*537 _118_
*538 net1
*539 net10
*540 net11
*541 net12
*542 net13
*543 net14
*544 net15
*545 net16
*546 net17
*547 net18
*548 net19
*549 net2
*550 net20
*551 net21
*552 net22
*553 net23
*554 net24
*555 net25
*556 net26
*557 net27
*558 net28
*559 net29
*560 net3
*561 net30
*562 net31
*563 net32
*564 net33
*565 net34
*566 net35
*567 net36
*568 net4
*569 net5
*570 net6
*571 net7
*572 net8
*573 net9
*574 ANTENNA__119__I
*575 ANTENNA__123__A1
*576 ANTENNA__124__A1
*577 ANTENNA__124__A2
*578 ANTENNA__124__A3
*579 ANTENNA__125__A1
*580 ANTENNA__126__A1
*581 ANTENNA__127__I
*582 ANTENNA__128__A2
*583 ANTENNA__128__B2
*584 ANTENNA__129__A1
*585 ANTENNA__132__I
*586 ANTENNA__133__A2
*587 ANTENNA__134__A2
*588 ANTENNA__135__A2
*589 ANTENNA__136__I
*590 ANTENNA__137__A2
*591 ANTENNA__138__A1
*592 ANTENNA__138__A3
*593 ANTENNA__139__B1
*594 ANTENNA__141__A1
*595 ANTENNA__142__A1
*596 ANTENNA__147__I
*597 ANTENNA__150__A1
*598 ANTENNA__152__A1
*599 ANTENNA__152__A2
*600 ANTENNA__152__A3
*601 ANTENNA__153__A1
*602 ANTENNA__154__A1
*603 ANTENNA__155__A1
*604 ANTENNA__156__I
*605 ANTENNA__157__A2
*606 ANTENNA__157__B2
*607 ANTENNA__158__A1
*608 ANTENNA__159__A1
*609 ANTENNA__161__I
*610 ANTENNA__162__A2
*611 ANTENNA__165__I
*612 ANTENNA__167__A1
*613 ANTENNA__169__A1
*614 ANTENNA__170__A1
*615 ANTENNA__171__A1
*616 ANTENNA__171__B
*617 ANTENNA__176__I
*618 ANTENNA__177__A2
*619 ANTENNA__178__A2
*620 ANTENNA__179__B1
*621 ANTENNA__179__B2
*622 ANTENNA__180__I
*623 ANTENNA__181__I
*624 ANTENNA__182__A1
*625 ANTENNA__182__A2
*626 ANTENNA__183__A1
*627 ANTENNA__183__A2
*628 ANTENNA__184__I
*629 ANTENNA__185__A1
*630 ANTENNA__187__A1
*631 ANTENNA__188__A1
*632 ANTENNA__189__I
*633 ANTENNA__192__I
*634 ANTENNA__193__A2
*635 ANTENNA__195__A2
*636 ANTENNA__198__A1
*637 ANTENNA__198__A2
*638 ANTENNA__199__A1
*639 ANTENNA__200__A2
*640 ANTENNA__201__A2
*641 ANTENNA__203__I
*642 ANTENNA__209__I
*643 ANTENNA__210__S
*644 ANTENNA__211__A2
*645 ANTENNA__215__A1
*646 ANTENNA__216__A2
*647 ANTENNA__218__I
*648 ANTENNA__219__A1
*649 ANTENNA__219__C
*650 ANTENNA__220__A1
*651 ANTENNA__224__A2
*652 ANTENNA__224__C
*653 ANTENNA__225__A3
*654 ANTENNA__227__I
*655 ANTENNA__228__A2
*656 ANTENNA__229__A2
*657 ANTENNA__231__A1
*658 ANTENNA__232__A1
*659 ANTENNA__232__A2
*660 ANTENNA__233__A1
*661 ANTENNA__233__A2
*662 ANTENNA__233__B
*663 ANTENNA__235__I0
*664 ANTENNA__237__A1
*665 ANTENNA__238__A1
*666 ANTENNA__239__A1
*667 ANTENNA__239__B
*668 ANTENNA__241__S
*669 ANTENNA__242__A1
*670 ANTENNA__243__A1
*671 ANTENNA__243__C
*672 ANTENNA__245__A2
*673 ANTENNA__246__A2
*674 ANTENNA__246__B1
*675 ANTENNA__247__A2
*676 ANTENNA__249__I
*677 ANTENNA_input10_I
*678 ANTENNA_input11_I
*679 ANTENNA_input12_I
*680 ANTENNA_input13_I
*681 ANTENNA_input14_I
*682 ANTENNA_input15_I
*683 ANTENNA_input16_I
*684 ANTENNA_input17_I
*685 ANTENNA_input18_I
*686 ANTENNA_input19_I
*687 ANTENNA_input1_I
*688 ANTENNA_input20_I
*689 ANTENNA_input21_I
*690 ANTENNA_input2_I
*691 ANTENNA_input3_I
*692 ANTENNA_input4_I
*693 ANTENNA_input5_I
*694 ANTENNA_input6_I
*695 ANTENNA_input7_I
*696 ANTENNA_input8_I
*697 ANTENNA_input9_I
*698 ANTENNA_output22_I
*699 ANTENNA_output24_I
*700 ANTENNA_output31_I
*701 ANTENNA_output32_I
*702 ANTENNA_output33_I
*703 ANTENNA_output34_I
*704 ANTENNA_output35_I
*705 ANTENNA_output36_I
*706 FILLER_0_105
*707 FILLER_0_111
*708 FILLER_0_117
*709 FILLER_0_123
*710 FILLER_0_129
*711 FILLER_0_135
*712 FILLER_0_141
*713 FILLER_0_147
*714 FILLER_0_153
*715 FILLER_0_159
*716 FILLER_0_165
*717 FILLER_0_171
*718 FILLER_0_177
*719 FILLER_0_180
*720 FILLER_0_185
*721 FILLER_0_191
*722 FILLER_0_197
*723 FILLER_0_2
*724 FILLER_0_203
*725 FILLER_0_209
*726 FILLER_0_215
*727 FILLER_0_221
*728 FILLER_0_227
*729 FILLER_0_233
*730 FILLER_0_239
*731 FILLER_0_245
*732 FILLER_0_251
*733 FILLER_0_257
*734 FILLER_0_263
*735 FILLER_0_269
*736 FILLER_0_275
*737 FILLER_0_281
*738 FILLER_0_287
*739 FILLER_0_293
*740 FILLER_0_299
*741 FILLER_0_305
*742 FILLER_0_311
*743 FILLER_0_317
*744 FILLER_0_323
*745 FILLER_0_329
*746 FILLER_0_335
*747 FILLER_0_34
*748 FILLER_0_341
*749 FILLER_0_347
*750 FILLER_0_353
*751 FILLER_0_355
*752 FILLER_0_358
*753 FILLER_0_363
*754 FILLER_0_369
*755 FILLER_0_375
*756 FILLER_0_381
*757 FILLER_0_387
*758 FILLER_0_393
*759 FILLER_0_399
*760 FILLER_0_405
*761 FILLER_0_411
*762 FILLER_0_417
*763 FILLER_0_42
*764 FILLER_0_423
*765 FILLER_0_429
*766 FILLER_0_435
*767 FILLER_0_441
*768 FILLER_0_447
*769 FILLER_0_453
*770 FILLER_0_459
*771 FILLER_0_46
*772 FILLER_0_465
*773 FILLER_0_471
*774 FILLER_0_477
*775 FILLER_0_48
*776 FILLER_0_483
*777 FILLER_0_489
*778 FILLER_0_495
*779 FILLER_0_501
*780 FILLER_0_507
*781 FILLER_0_513
*782 FILLER_0_519
*783 FILLER_0_525
*784 FILLER_0_53
*785 FILLER_0_531
*786 FILLER_0_533
*787 FILLER_0_536
*788 FILLER_0_541
*789 FILLER_0_547
*790 FILLER_0_553
*791 FILLER_0_559
*792 FILLER_0_565
*793 FILLER_0_571
*794 FILLER_0_577
*795 FILLER_0_583
*796 FILLER_0_589
*797 FILLER_0_595
*798 FILLER_0_601
*799 FILLER_0_607
*800 FILLER_0_613
*801 FILLER_0_619
*802 FILLER_0_625
*803 FILLER_0_631
*804 FILLER_0_637
*805 FILLER_0_643
*806 FILLER_0_649
*807 FILLER_0_65
*808 FILLER_0_655
*809 FILLER_0_687
*810 FILLER_0_73
*811 FILLER_0_81
*812 FILLER_0_87
*813 FILLER_0_93
*814 FILLER_0_99
*815 FILLER_10_130
*816 FILLER_10_162
*817 FILLER_10_180
*818 FILLER_10_2
*819 FILLER_10_244
*820 FILLER_10_308
*821 FILLER_10_372
*822 FILLER_10_436
*823 FILLER_10_500
*824 FILLER_10_532
*825 FILLER_10_534
*826 FILLER_10_537
*827 FILLER_10_601
*828 FILLER_10_66
*829 FILLER_10_665
*830 FILLER_10_681
*831 FILLER_10_685
*832 FILLER_10_687
*833 FILLER_11_130
*834 FILLER_11_194
*835 FILLER_11_2
*836 FILLER_11_258
*837 FILLER_11_322
*838 FILLER_11_354
*839 FILLER_11_356
*840 FILLER_11_359
*841 FILLER_11_423
*842 FILLER_11_487
*843 FILLER_11_551
*844 FILLER_11_615
*845 FILLER_11_66
*846 FILLER_11_679
*847 FILLER_11_687
*848 FILLER_12_130
*849 FILLER_12_162
*850 FILLER_12_180
*851 FILLER_12_2
*852 FILLER_12_244
*853 FILLER_12_308
*854 FILLER_12_372
*855 FILLER_12_436
*856 FILLER_12_500
*857 FILLER_12_532
*858 FILLER_12_534
*859 FILLER_12_537
*860 FILLER_12_601
*861 FILLER_12_66
*862 FILLER_12_665
*863 FILLER_12_681
*864 FILLER_12_685
*865 FILLER_12_687
*866 FILLER_13_130
*867 FILLER_13_194
*868 FILLER_13_2
*869 FILLER_13_258
*870 FILLER_13_322
*871 FILLER_13_354
*872 FILLER_13_356
*873 FILLER_13_359
*874 FILLER_13_423
*875 FILLER_13_487
*876 FILLER_13_551
*877 FILLER_13_615
*878 FILLER_13_66
*879 FILLER_13_679
*880 FILLER_13_687
*881 FILLER_14_130
*882 FILLER_14_162
*883 FILLER_14_180
*884 FILLER_14_2
*885 FILLER_14_244
*886 FILLER_14_308
*887 FILLER_14_372
*888 FILLER_14_436
*889 FILLER_14_500
*890 FILLER_14_532
*891 FILLER_14_534
*892 FILLER_14_537
*893 FILLER_14_601
*894 FILLER_14_66
*895 FILLER_14_665
*896 FILLER_14_681
*897 FILLER_14_685
*898 FILLER_14_687
*899 FILLER_15_130
*900 FILLER_15_194
*901 FILLER_15_2
*902 FILLER_15_258
*903 FILLER_15_322
*904 FILLER_15_354
*905 FILLER_15_356
*906 FILLER_15_359
*907 FILLER_15_423
*908 FILLER_15_487
*909 FILLER_15_551
*910 FILLER_15_615
*911 FILLER_15_66
*912 FILLER_15_679
*913 FILLER_15_687
*914 FILLER_16_130
*915 FILLER_16_162
*916 FILLER_16_180
*917 FILLER_16_2
*918 FILLER_16_244
*919 FILLER_16_308
*920 FILLER_16_372
*921 FILLER_16_436
*922 FILLER_16_500
*923 FILLER_16_532
*924 FILLER_16_534
*925 FILLER_16_537
*926 FILLER_16_601
*927 FILLER_16_66
*928 FILLER_16_665
*929 FILLER_16_681
*930 FILLER_16_685
*931 FILLER_16_687
*932 FILLER_17_130
*933 FILLER_17_194
*934 FILLER_17_2
*935 FILLER_17_258
*936 FILLER_17_322
*937 FILLER_17_354
*938 FILLER_17_356
*939 FILLER_17_359
*940 FILLER_17_423
*941 FILLER_17_487
*942 FILLER_17_551
*943 FILLER_17_615
*944 FILLER_17_66
*945 FILLER_17_679
*946 FILLER_17_687
*947 FILLER_18_130
*948 FILLER_18_162
*949 FILLER_18_180
*950 FILLER_18_2
*951 FILLER_18_244
*952 FILLER_18_308
*953 FILLER_18_372
*954 FILLER_18_436
*955 FILLER_18_500
*956 FILLER_18_532
*957 FILLER_18_534
*958 FILLER_18_537
*959 FILLER_18_601
*960 FILLER_18_66
*961 FILLER_18_665
*962 FILLER_18_681
*963 FILLER_18_685
*964 FILLER_18_687
*965 FILLER_19_130
*966 FILLER_19_194
*967 FILLER_19_2
*968 FILLER_19_258
*969 FILLER_19_322
*970 FILLER_19_354
*971 FILLER_19_356
*972 FILLER_19_359
*973 FILLER_19_423
*974 FILLER_19_487
*975 FILLER_19_551
*976 FILLER_19_615
*977 FILLER_19_66
*978 FILLER_19_679
*979 FILLER_19_687
*980 FILLER_1_130
*981 FILLER_1_194
*982 FILLER_1_2
*983 FILLER_1_258
*984 FILLER_1_322
*985 FILLER_1_354
*986 FILLER_1_356
*987 FILLER_1_359
*988 FILLER_1_423
*989 FILLER_1_487
*990 FILLER_1_551
*991 FILLER_1_615
*992 FILLER_1_631
*993 FILLER_1_639
*994 FILLER_1_645
*995 FILLER_1_651
*996 FILLER_1_66
*997 FILLER_1_683
*998 FILLER_1_687
*999 FILLER_20_130
*1000 FILLER_20_162
*1001 FILLER_20_180
*1002 FILLER_20_2
*1003 FILLER_20_244
*1004 FILLER_20_308
*1005 FILLER_20_372
*1006 FILLER_20_436
*1007 FILLER_20_500
*1008 FILLER_20_532
*1009 FILLER_20_534
*1010 FILLER_20_537
*1011 FILLER_20_601
*1012 FILLER_20_66
*1013 FILLER_20_665
*1014 FILLER_20_681
*1015 FILLER_20_685
*1016 FILLER_20_687
*1017 FILLER_21_130
*1018 FILLER_21_194
*1019 FILLER_21_2
*1020 FILLER_21_258
*1021 FILLER_21_322
*1022 FILLER_21_354
*1023 FILLER_21_356
*1024 FILLER_21_359
*1025 FILLER_21_423
*1026 FILLER_21_487
*1027 FILLER_21_551
*1028 FILLER_21_615
*1029 FILLER_21_66
*1030 FILLER_21_679
*1031 FILLER_21_687
*1032 FILLER_22_130
*1033 FILLER_22_162
*1034 FILLER_22_180
*1035 FILLER_22_2
*1036 FILLER_22_244
*1037 FILLER_22_308
*1038 FILLER_22_372
*1039 FILLER_22_436
*1040 FILLER_22_500
*1041 FILLER_22_532
*1042 FILLER_22_534
*1043 FILLER_22_537
*1044 FILLER_22_601
*1045 FILLER_22_66
*1046 FILLER_22_665
*1047 FILLER_22_681
*1048 FILLER_22_685
*1049 FILLER_22_687
*1050 FILLER_23_130
*1051 FILLER_23_194
*1052 FILLER_23_2
*1053 FILLER_23_258
*1054 FILLER_23_322
*1055 FILLER_23_354
*1056 FILLER_23_356
*1057 FILLER_23_359
*1058 FILLER_23_423
*1059 FILLER_23_487
*1060 FILLER_23_551
*1061 FILLER_23_615
*1062 FILLER_23_66
*1063 FILLER_23_679
*1064 FILLER_23_687
*1065 FILLER_24_130
*1066 FILLER_24_162
*1067 FILLER_24_180
*1068 FILLER_24_2
*1069 FILLER_24_244
*1070 FILLER_24_308
*1071 FILLER_24_372
*1072 FILLER_24_436
*1073 FILLER_24_500
*1074 FILLER_24_532
*1075 FILLER_24_534
*1076 FILLER_24_537
*1077 FILLER_24_601
*1078 FILLER_24_66
*1079 FILLER_24_665
*1080 FILLER_24_681
*1081 FILLER_24_685
*1082 FILLER_24_687
*1083 FILLER_25_130
*1084 FILLER_25_194
*1085 FILLER_25_2
*1086 FILLER_25_258
*1087 FILLER_25_322
*1088 FILLER_25_354
*1089 FILLER_25_356
*1090 FILLER_25_359
*1091 FILLER_25_423
*1092 FILLER_25_487
*1093 FILLER_25_551
*1094 FILLER_25_615
*1095 FILLER_25_66
*1096 FILLER_25_679
*1097 FILLER_25_687
*1098 FILLER_26_130
*1099 FILLER_26_162
*1100 FILLER_26_180
*1101 FILLER_26_2
*1102 FILLER_26_244
*1103 FILLER_26_308
*1104 FILLER_26_372
*1105 FILLER_26_436
*1106 FILLER_26_500
*1107 FILLER_26_532
*1108 FILLER_26_534
*1109 FILLER_26_537
*1110 FILLER_26_601
*1111 FILLER_26_66
*1112 FILLER_26_665
*1113 FILLER_26_681
*1114 FILLER_26_685
*1115 FILLER_26_687
*1116 FILLER_27_130
*1117 FILLER_27_194
*1118 FILLER_27_2
*1119 FILLER_27_258
*1120 FILLER_27_322
*1121 FILLER_27_354
*1122 FILLER_27_356
*1123 FILLER_27_359
*1124 FILLER_27_423
*1125 FILLER_27_487
*1126 FILLER_27_551
*1127 FILLER_27_615
*1128 FILLER_27_66
*1129 FILLER_27_679
*1130 FILLER_27_687
*1131 FILLER_28_130
*1132 FILLER_28_162
*1133 FILLER_28_180
*1134 FILLER_28_2
*1135 FILLER_28_244
*1136 FILLER_28_308
*1137 FILLER_28_372
*1138 FILLER_28_436
*1139 FILLER_28_500
*1140 FILLER_28_532
*1141 FILLER_28_534
*1142 FILLER_28_537
*1143 FILLER_28_601
*1144 FILLER_28_66
*1145 FILLER_28_665
*1146 FILLER_28_681
*1147 FILLER_28_685
*1148 FILLER_28_687
*1149 FILLER_29_130
*1150 FILLER_29_194
*1151 FILLER_29_2
*1152 FILLER_29_258
*1153 FILLER_29_322
*1154 FILLER_29_354
*1155 FILLER_29_356
*1156 FILLER_29_359
*1157 FILLER_29_423
*1158 FILLER_29_487
*1159 FILLER_29_551
*1160 FILLER_29_615
*1161 FILLER_29_66
*1162 FILLER_29_679
*1163 FILLER_29_687
*1164 FILLER_2_130
*1165 FILLER_2_162
*1166 FILLER_2_180
*1167 FILLER_2_2
*1168 FILLER_2_244
*1169 FILLER_2_308
*1170 FILLER_2_372
*1171 FILLER_2_436
*1172 FILLER_2_500
*1173 FILLER_2_532
*1174 FILLER_2_534
*1175 FILLER_2_537
*1176 FILLER_2_601
*1177 FILLER_2_66
*1178 FILLER_2_665
*1179 FILLER_2_681
*1180 FILLER_2_685
*1181 FILLER_2_687
*1182 FILLER_30_130
*1183 FILLER_30_162
*1184 FILLER_30_180
*1185 FILLER_30_2
*1186 FILLER_30_244
*1187 FILLER_30_308
*1188 FILLER_30_372
*1189 FILLER_30_436
*1190 FILLER_30_500
*1191 FILLER_30_532
*1192 FILLER_30_534
*1193 FILLER_30_537
*1194 FILLER_30_601
*1195 FILLER_30_66
*1196 FILLER_30_665
*1197 FILLER_30_681
*1198 FILLER_30_685
*1199 FILLER_30_687
*1200 FILLER_31_130
*1201 FILLER_31_194
*1202 FILLER_31_2
*1203 FILLER_31_258
*1204 FILLER_31_322
*1205 FILLER_31_354
*1206 FILLER_31_356
*1207 FILLER_31_359
*1208 FILLER_31_423
*1209 FILLER_31_487
*1210 FILLER_31_551
*1211 FILLER_31_615
*1212 FILLER_31_66
*1213 FILLER_31_679
*1214 FILLER_31_687
*1215 FILLER_32_130
*1216 FILLER_32_162
*1217 FILLER_32_180
*1218 FILLER_32_2
*1219 FILLER_32_244
*1220 FILLER_32_308
*1221 FILLER_32_372
*1222 FILLER_32_436
*1223 FILLER_32_500
*1224 FILLER_32_532
*1225 FILLER_32_534
*1226 FILLER_32_537
*1227 FILLER_32_601
*1228 FILLER_32_66
*1229 FILLER_32_665
*1230 FILLER_32_681
*1231 FILLER_32_685
*1232 FILLER_32_687
*1233 FILLER_33_130
*1234 FILLER_33_194
*1235 FILLER_33_2
*1236 FILLER_33_258
*1237 FILLER_33_322
*1238 FILLER_33_354
*1239 FILLER_33_356
*1240 FILLER_33_359
*1241 FILLER_33_423
*1242 FILLER_33_487
*1243 FILLER_33_551
*1244 FILLER_33_615
*1245 FILLER_33_66
*1246 FILLER_33_679
*1247 FILLER_33_687
*1248 FILLER_34_130
*1249 FILLER_34_162
*1250 FILLER_34_180
*1251 FILLER_34_2
*1252 FILLER_34_244
*1253 FILLER_34_308
*1254 FILLER_34_372
*1255 FILLER_34_436
*1256 FILLER_34_500
*1257 FILLER_34_532
*1258 FILLER_34_534
*1259 FILLER_34_537
*1260 FILLER_34_601
*1261 FILLER_34_66
*1262 FILLER_34_665
*1263 FILLER_34_681
*1264 FILLER_34_685
*1265 FILLER_34_687
*1266 FILLER_35_130
*1267 FILLER_35_194
*1268 FILLER_35_2
*1269 FILLER_35_258
*1270 FILLER_35_322
*1271 FILLER_35_354
*1272 FILLER_35_356
*1273 FILLER_35_359
*1274 FILLER_35_423
*1275 FILLER_35_487
*1276 FILLER_35_551
*1277 FILLER_35_615
*1278 FILLER_35_66
*1279 FILLER_35_679
*1280 FILLER_35_687
*1281 FILLER_36_130
*1282 FILLER_36_162
*1283 FILLER_36_180
*1284 FILLER_36_2
*1285 FILLER_36_244
*1286 FILLER_36_308
*1287 FILLER_36_372
*1288 FILLER_36_436
*1289 FILLER_36_500
*1290 FILLER_36_532
*1291 FILLER_36_534
*1292 FILLER_36_537
*1293 FILLER_36_601
*1294 FILLER_36_66
*1295 FILLER_36_665
*1296 FILLER_36_681
*1297 FILLER_36_685
*1298 FILLER_36_687
*1299 FILLER_37_130
*1300 FILLER_37_194
*1301 FILLER_37_2
*1302 FILLER_37_258
*1303 FILLER_37_322
*1304 FILLER_37_354
*1305 FILLER_37_356
*1306 FILLER_37_359
*1307 FILLER_37_423
*1308 FILLER_37_487
*1309 FILLER_37_551
*1310 FILLER_37_615
*1311 FILLER_37_66
*1312 FILLER_37_679
*1313 FILLER_37_687
*1314 FILLER_38_130
*1315 FILLER_38_162
*1316 FILLER_38_180
*1317 FILLER_38_2
*1318 FILLER_38_244
*1319 FILLER_38_308
*1320 FILLER_38_372
*1321 FILLER_38_436
*1322 FILLER_38_500
*1323 FILLER_38_532
*1324 FILLER_38_534
*1325 FILLER_38_537
*1326 FILLER_38_601
*1327 FILLER_38_66
*1328 FILLER_38_665
*1329 FILLER_38_681
*1330 FILLER_38_685
*1331 FILLER_38_687
*1332 FILLER_39_130
*1333 FILLER_39_194
*1334 FILLER_39_2
*1335 FILLER_39_258
*1336 FILLER_39_322
*1337 FILLER_39_354
*1338 FILLER_39_356
*1339 FILLER_39_359
*1340 FILLER_39_423
*1341 FILLER_39_487
*1342 FILLER_39_551
*1343 FILLER_39_615
*1344 FILLER_39_66
*1345 FILLER_39_679
*1346 FILLER_39_687
*1347 FILLER_3_130
*1348 FILLER_3_194
*1349 FILLER_3_2
*1350 FILLER_3_258
*1351 FILLER_3_322
*1352 FILLER_3_354
*1353 FILLER_3_356
*1354 FILLER_3_359
*1355 FILLER_3_423
*1356 FILLER_3_487
*1357 FILLER_3_551
*1358 FILLER_3_615
*1359 FILLER_3_66
*1360 FILLER_3_679
*1361 FILLER_3_687
*1362 FILLER_40_130
*1363 FILLER_40_162
*1364 FILLER_40_180
*1365 FILLER_40_2
*1366 FILLER_40_244
*1367 FILLER_40_308
*1368 FILLER_40_372
*1369 FILLER_40_436
*1370 FILLER_40_500
*1371 FILLER_40_532
*1372 FILLER_40_534
*1373 FILLER_40_537
*1374 FILLER_40_601
*1375 FILLER_40_66
*1376 FILLER_40_665
*1377 FILLER_40_681
*1378 FILLER_40_685
*1379 FILLER_40_687
*1380 FILLER_41_130
*1381 FILLER_41_194
*1382 FILLER_41_2
*1383 FILLER_41_258
*1384 FILLER_41_322
*1385 FILLER_41_354
*1386 FILLER_41_356
*1387 FILLER_41_359
*1388 FILLER_41_423
*1389 FILLER_41_487
*1390 FILLER_41_551
*1391 FILLER_41_615
*1392 FILLER_41_66
*1393 FILLER_41_679
*1394 FILLER_41_687
*1395 FILLER_42_130
*1396 FILLER_42_162
*1397 FILLER_42_180
*1398 FILLER_42_2
*1399 FILLER_42_244
*1400 FILLER_42_308
*1401 FILLER_42_372
*1402 FILLER_42_436
*1403 FILLER_42_500
*1404 FILLER_42_532
*1405 FILLER_42_534
*1406 FILLER_42_537
*1407 FILLER_42_601
*1408 FILLER_42_66
*1409 FILLER_42_665
*1410 FILLER_42_681
*1411 FILLER_42_685
*1412 FILLER_42_687
*1413 FILLER_43_130
*1414 FILLER_43_194
*1415 FILLER_43_2
*1416 FILLER_43_258
*1417 FILLER_43_322
*1418 FILLER_43_354
*1419 FILLER_43_356
*1420 FILLER_43_359
*1421 FILLER_43_423
*1422 FILLER_43_487
*1423 FILLER_43_551
*1424 FILLER_43_615
*1425 FILLER_43_66
*1426 FILLER_43_679
*1427 FILLER_43_687
*1428 FILLER_44_130
*1429 FILLER_44_162
*1430 FILLER_44_180
*1431 FILLER_44_2
*1432 FILLER_44_244
*1433 FILLER_44_308
*1434 FILLER_44_372
*1435 FILLER_44_436
*1436 FILLER_44_500
*1437 FILLER_44_532
*1438 FILLER_44_534
*1439 FILLER_44_537
*1440 FILLER_44_601
*1441 FILLER_44_66
*1442 FILLER_44_665
*1443 FILLER_44_681
*1444 FILLER_44_685
*1445 FILLER_44_687
*1446 FILLER_45_130
*1447 FILLER_45_194
*1448 FILLER_45_2
*1449 FILLER_45_258
*1450 FILLER_45_322
*1451 FILLER_45_354
*1452 FILLER_45_356
*1453 FILLER_45_359
*1454 FILLER_45_423
*1455 FILLER_45_487
*1456 FILLER_45_551
*1457 FILLER_45_615
*1458 FILLER_45_66
*1459 FILLER_45_679
*1460 FILLER_45_687
*1461 FILLER_46_130
*1462 FILLER_46_162
*1463 FILLER_46_180
*1464 FILLER_46_2
*1465 FILLER_46_244
*1466 FILLER_46_308
*1467 FILLER_46_372
*1468 FILLER_46_436
*1469 FILLER_46_500
*1470 FILLER_46_532
*1471 FILLER_46_534
*1472 FILLER_46_537
*1473 FILLER_46_601
*1474 FILLER_46_66
*1475 FILLER_46_665
*1476 FILLER_46_681
*1477 FILLER_46_685
*1478 FILLER_46_687
*1479 FILLER_47_130
*1480 FILLER_47_194
*1481 FILLER_47_2
*1482 FILLER_47_258
*1483 FILLER_47_322
*1484 FILLER_47_354
*1485 FILLER_47_356
*1486 FILLER_47_359
*1487 FILLER_47_423
*1488 FILLER_47_487
*1489 FILLER_47_551
*1490 FILLER_47_615
*1491 FILLER_47_66
*1492 FILLER_47_679
*1493 FILLER_47_687
*1494 FILLER_48_130
*1495 FILLER_48_162
*1496 FILLER_48_180
*1497 FILLER_48_2
*1498 FILLER_48_244
*1499 FILLER_48_308
*1500 FILLER_48_372
*1501 FILLER_48_436
*1502 FILLER_48_500
*1503 FILLER_48_532
*1504 FILLER_48_534
*1505 FILLER_48_537
*1506 FILLER_48_601
*1507 FILLER_48_66
*1508 FILLER_48_665
*1509 FILLER_48_681
*1510 FILLER_48_685
*1511 FILLER_48_687
*1512 FILLER_49_130
*1513 FILLER_49_194
*1514 FILLER_49_2
*1515 FILLER_49_258
*1516 FILLER_49_322
*1517 FILLER_49_354
*1518 FILLER_49_356
*1519 FILLER_49_359
*1520 FILLER_49_423
*1521 FILLER_49_487
*1522 FILLER_49_551
*1523 FILLER_49_615
*1524 FILLER_49_66
*1525 FILLER_49_679
*1526 FILLER_49_687
*1527 FILLER_4_130
*1528 FILLER_4_162
*1529 FILLER_4_180
*1530 FILLER_4_2
*1531 FILLER_4_244
*1532 FILLER_4_308
*1533 FILLER_4_372
*1534 FILLER_4_436
*1535 FILLER_4_500
*1536 FILLER_4_532
*1537 FILLER_4_534
*1538 FILLER_4_537
*1539 FILLER_4_601
*1540 FILLER_4_66
*1541 FILLER_4_665
*1542 FILLER_4_681
*1543 FILLER_4_685
*1544 FILLER_4_687
*1545 FILLER_50_130
*1546 FILLER_50_162
*1547 FILLER_50_180
*1548 FILLER_50_2
*1549 FILLER_50_244
*1550 FILLER_50_308
*1551 FILLER_50_372
*1552 FILLER_50_436
*1553 FILLER_50_500
*1554 FILLER_50_532
*1555 FILLER_50_534
*1556 FILLER_50_537
*1557 FILLER_50_601
*1558 FILLER_50_66
*1559 FILLER_50_665
*1560 FILLER_50_681
*1561 FILLER_50_685
*1562 FILLER_50_687
*1563 FILLER_51_130
*1564 FILLER_51_194
*1565 FILLER_51_2
*1566 FILLER_51_258
*1567 FILLER_51_322
*1568 FILLER_51_354
*1569 FILLER_51_356
*1570 FILLER_51_359
*1571 FILLER_51_423
*1572 FILLER_51_487
*1573 FILLER_51_551
*1574 FILLER_51_615
*1575 FILLER_51_66
*1576 FILLER_51_679
*1577 FILLER_51_687
*1578 FILLER_52_130
*1579 FILLER_52_162
*1580 FILLER_52_180
*1581 FILLER_52_2
*1582 FILLER_52_244
*1583 FILLER_52_308
*1584 FILLER_52_372
*1585 FILLER_52_436
*1586 FILLER_52_500
*1587 FILLER_52_532
*1588 FILLER_52_534
*1589 FILLER_52_537
*1590 FILLER_52_601
*1591 FILLER_52_66
*1592 FILLER_52_665
*1593 FILLER_52_681
*1594 FILLER_52_685
*1595 FILLER_52_687
*1596 FILLER_53_130
*1597 FILLER_53_194
*1598 FILLER_53_2
*1599 FILLER_53_258
*1600 FILLER_53_322
*1601 FILLER_53_354
*1602 FILLER_53_356
*1603 FILLER_53_359
*1604 FILLER_53_423
*1605 FILLER_53_487
*1606 FILLER_53_551
*1607 FILLER_53_615
*1608 FILLER_53_66
*1609 FILLER_53_679
*1610 FILLER_53_687
*1611 FILLER_54_130
*1612 FILLER_54_162
*1613 FILLER_54_180
*1614 FILLER_54_2
*1615 FILLER_54_244
*1616 FILLER_54_308
*1617 FILLER_54_372
*1618 FILLER_54_436
*1619 FILLER_54_500
*1620 FILLER_54_532
*1621 FILLER_54_534
*1622 FILLER_54_537
*1623 FILLER_54_601
*1624 FILLER_54_66
*1625 FILLER_54_665
*1626 FILLER_54_681
*1627 FILLER_54_685
*1628 FILLER_54_687
*1629 FILLER_55_130
*1630 FILLER_55_194
*1631 FILLER_55_2
*1632 FILLER_55_258
*1633 FILLER_55_322
*1634 FILLER_55_354
*1635 FILLER_55_356
*1636 FILLER_55_359
*1637 FILLER_55_423
*1638 FILLER_55_487
*1639 FILLER_55_551
*1640 FILLER_55_615
*1641 FILLER_55_66
*1642 FILLER_55_679
*1643 FILLER_55_687
*1644 FILLER_56_130
*1645 FILLER_56_162
*1646 FILLER_56_180
*1647 FILLER_56_2
*1648 FILLER_56_244
*1649 FILLER_56_308
*1650 FILLER_56_372
*1651 FILLER_56_436
*1652 FILLER_56_500
*1653 FILLER_56_532
*1654 FILLER_56_534
*1655 FILLER_56_537
*1656 FILLER_56_601
*1657 FILLER_56_66
*1658 FILLER_56_665
*1659 FILLER_56_681
*1660 FILLER_56_685
*1661 FILLER_56_687
*1662 FILLER_57_130
*1663 FILLER_57_194
*1664 FILLER_57_2
*1665 FILLER_57_258
*1666 FILLER_57_322
*1667 FILLER_57_354
*1668 FILLER_57_356
*1669 FILLER_57_359
*1670 FILLER_57_423
*1671 FILLER_57_487
*1672 FILLER_57_551
*1673 FILLER_57_615
*1674 FILLER_57_66
*1675 FILLER_57_679
*1676 FILLER_57_687
*1677 FILLER_58_130
*1678 FILLER_58_162
*1679 FILLER_58_180