*SPEF "ieee 1481-1999"
*DESIGN "macro_golden"
*DATE "11:11:11 Fri 11 11, 1111"
*VENDOR "OpenRCX"
*PROGRAM "Parallel Extraction"
*VERSION "1.0"
*DESIGN_FLOW "NAME_SCOPE LOCAL" "PIN_CAP NONE"
*DIVIDER /
*DELIMITER :
*BUS_DELIMITER []
*T_UNIT 1 NS
*C_UNIT 1 PF
*R_UNIT 1 OHM
*L_UNIT 1 HENRY

*NAME_MAP
*1 io_active
*2 io_in[0]
*3 io_in[10]
*4 io_in[11]
*5 io_in[12]
*6 io_in[13]
*7 io_in[14]
*8 io_in[15]
*9 io_in[16]
*10 io_in[17]
*11 io_in[18]
*12 io_in[19]
*13 io_in[1]
*14 io_in[20]
*15 io_in[21]
*16 io_in[22]
*17 io_in[23]
*18 io_in[24]
*19 io_in[25]
*20 io_in[26]
*21 io_in[27]
*22 io_in[28]
*23 io_in[29]
*24 io_in[2]
*25 io_in[30]
*26 io_in[31]
*27 io_in[32]
*28 io_in[33]
*29 io_in[34]
*30 io_in[35]
*31 io_in[36]
*32 io_in[37]
*33 io_in[3]
*34 io_in[4]
*35 io_in[5]
*36 io_in[6]
*37 io_in[7]
*38 io_in[8]
*39 io_in[9]
*40 net98
*41 net108
*42 net109
*43 net110
*44 net111
*45 net112
*46 net113
*47 net114
*48 net115
*49 net116
*50 net117
*51 net99
*52 net118
*53 net119
*54 net120
*55 net121
*56 net122
*57 net123
*58 net124
*59 net125
*60 net126
*61 net127
*62 net100
*63 net128
*64 net129
*65 net130
*66 net131
*67 net132
*68 net133
*69 net134
*70 net135
*71 net101
*72 net102
*73 net103
*74 net104
*75 net105
*76 net106
*77 net107
*78 io_out[0]
*79 io_out[10]
*80 io_out[11]
*81 io_out[12]
*82 io_out[13]
*83 io_out[14]
*84 io_out[15]
*85 io_out[16]
*86 io_out[17]
*87 net139
*88 net140
*89 net136
*90 net141
*91 net142
*92 net143
*93 net144
*94 net145
*95 net146
*96 net147
*97 net148
*98 net149
*99 net150
*100 net137
*101 net151
*102 net152
*103 net153
*104 net154
*105 net155
*106 net156
*107 net157
*108 net158
*109 net138
*110 io_out[4]
*111 io_out[5]
*112 io_out[6]
*113 io_out[7]
*114 io_out[8]
*115 io_out[9]
*116 net159
*117 net160
*118 net161
*119 la_data_in[0]
*120 la_data_in[10]
*121 la_data_in[11]
*122 la_data_in[12]
*123 la_data_in[13]
*124 la_data_in[14]
*125 la_data_in[15]
*126 la_data_in[16]
*127 la_data_in[17]
*128 la_data_in[18]
*129 la_data_in[19]
*130 la_data_in[1]
*131 la_data_in[20]
*132 la_data_in[21]
*133 la_data_in[22]
*134 la_data_in[23]
*135 la_data_in[24]
*136 la_data_in[25]
*137 la_data_in[26]
*138 la_data_in[27]
*139 la_data_in[28]
*140 la_data_in[29]
*141 la_data_in[2]
*142 la_data_in[30]
*143 la_data_in[31]
*144 la_data_in[32]
*145 la_data_in[33]
*146 la_data_in[34]
*147 la_data_in[35]
*148 la_data_in[36]
*149 la_data_in[37]
*150 la_data_in[38]
*151 la_data_in[39]
*152 la_data_in[3]
*153 la_data_in[40]
*154 la_data_in[41]
*155 la_data_in[42]
*156 la_data_in[43]
*157 la_data_in[44]
*158 la_data_in[45]
*159 la_data_in[46]
*160 la_data_in[47]
*161 la_data_in[48]
*162 la_data_in[49]
*163 la_data_in[4]
*164 la_data_in[50]
*165 la_data_in[51]
*166 la_data_in[52]
*167 la_data_in[53]
*168 la_data_in[54]
*169 la_data_in[55]
*170 la_data_in[56]
*171 la_data_in[57]
*172 la_data_in[58]
*173 la_data_in[59]
*174 la_data_in[5]
*175 la_data_in[60]
*176 la_data_in[61]
*177 la_data_in[62]
*178 la_data_in[63]
*179 la_data_in[6]
*180 la_data_in[7]
*181 la_data_in[8]
*182 la_data_in[9]
*183 net162
*184 net172
*185 net173
*186 net174
*187 net175
*188 net176
*189 net177
*190 net178
*191 net179
*192 net180
*193 net181
*194 net163
*195 net182
*196 net183
*197 net184
*198 net185
*199 net186
*200 net187
*201 net188
*202 net189
*203 net190
*204 net191
*205 net164
*206 net192
*207 net193
*208 net194
*209 net195
*210 net196
*211 net197
*212 net37
*213 net38
*214 net39
*215 net40
*216 net165
*217 net41
*218 net42
*219 net43
*220 net44
*221 net45
*222 net46
*223 net47
*224 net48
*225 net49
*226 net50
*227 net166
*228 net51
*229 net52
*230 net53
*231 net54
*232 net55
*233 net56
*234 net57
*235 net58
*236 net59
*237 net60
*238 net167
*239 net61
*240 net62
*241 net63
*242 net64
*243 net168
*244 net169
*245 net170
*246 net171
*247 la_oenb[0]
*248 la_oenb[10]
*249 la_oenb[11]
*250 la_oenb[12]
*251 la_oenb[13]
*252 la_oenb[14]
*253 la_oenb[15]
*254 la_oenb[16]
*255 la_oenb[17]
*256 la_oenb[18]
*257 la_oenb[19]
*258 la_oenb[1]
*259 la_oenb[20]
*260 la_oenb[21]
*261 la_oenb[22]
*262 la_oenb[23]
*263 la_oenb[24]
*264 la_oenb[25]
*265 la_oenb[26]
*266 la_oenb[27]
*267 la_oenb[28]
*268 la_oenb[29]
*269 la_oenb[2]
*270 la_oenb[30]
*271 la_oenb[31]
*272 la_oenb[32]
*273 la_oenb[33]
*274 la_oenb[34]
*275 la_oenb[35]
*276 la_oenb[36]
*277 la_oenb[37]
*278 la_oenb[38]
*279 la_oenb[39]
*280 la_oenb[3]
*281 la_oenb[40]
*282 la_oenb[41]
*283 la_oenb[42]
*284 la_oenb[43]
*285 la_oenb[44]
*286 la_oenb[45]
*287 la_oenb[46]
*288 la_oenb[47]
*289 la_oenb[48]
*290 la_oenb[49]
*291 la_oenb[4]
*292 la_oenb[50]
*293 la_oenb[51]
*294 la_oenb[52]
*295 la_oenb[53]
*296 la_oenb[54]
*297 la_oenb[55]
*298 la_oenb[56]
*299 la_oenb[57]
*300 la_oenb[58]
*301 la_oenb[59]
*302 la_oenb[5]
*303 la_oenb[60]
*304 la_oenb[61]
*305 la_oenb[62]
*306 la_oenb[63]
*307 la_oenb[6]
*308 la_oenb[7]
*309 la_oenb[8]
*310 la_oenb[9]
*313 wb_clk_i
*314 wb_rst_i
*315 net65
*316 wbs_adr_i[0]
*317 wbs_adr_i[10]
*318 wbs_adr_i[11]
*319 wbs_adr_i[12]
*320 wbs_adr_i[13]
*321 wbs_adr_i[14]
*322 wbs_adr_i[15]
*323 wbs_adr_i[16]
*324 wbs_adr_i[17]
*325 wbs_adr_i[18]
*326 wbs_adr_i[19]
*327 wbs_adr_i[1]
*328 wbs_adr_i[20]
*329 wbs_adr_i[21]
*330 wbs_adr_i[22]
*331 wbs_adr_i[23]
*332 wbs_adr_i[24]
*333 wbs_adr_i[25]
*334 wbs_adr_i[26]
*335 wbs_adr_i[27]
*336 wbs_adr_i[28]
*337 wbs_adr_i[29]
*338 wbs_adr_i[2]
*339 wbs_adr_i[30]
*340 wbs_adr_i[31]
*341 wbs_adr_i[3]
*342 wbs_adr_i[4]
*343 wbs_adr_i[5]
*344 wbs_adr_i[6]
*345 wbs_adr_i[7]
*346 wbs_adr_i[8]
*347 wbs_adr_i[9]
*348 wbs_cyc_i
*349 wbs_dat_i[0]
*350 wbs_dat_i[10]
*351 wbs_dat_i[11]
*352 wbs_dat_i[12]
*353 wbs_dat_i[13]
*354 wbs_dat_i[14]
*355 wbs_dat_i[15]
*356 wbs_dat_i[16]
*357 wbs_dat_i[17]
*358 wbs_dat_i[18]
*359 wbs_dat_i[19]
*360 wbs_dat_i[1]
*361 wbs_dat_i[20]
*362 wbs_dat_i[21]
*363 wbs_dat_i[22]
*364 wbs_dat_i[23]
*365 wbs_dat_i[24]
*366 wbs_dat_i[25]
*367 wbs_dat_i[26]
*368 wbs_dat_i[27]
*369 wbs_dat_i[28]
*370 wbs_dat_i[29]
*371 wbs_dat_i[2]
*372 wbs_dat_i[30]
*373 wbs_dat_i[31]
*374 wbs_dat_i[3]
*375 wbs_dat_i[4]
*376 wbs_dat_i[5]
*377 wbs_dat_i[6]
*378 wbs_dat_i[7]
*379 wbs_dat_i[8]
*380 wbs_dat_i[9]
*381 net66
*382 net76
*383 net77
*384 net78
*385 net79
*386 net80
*387 net81
*388 net82
*389 net83
*390 net84
*391 net85
*392 net67
*393 net86
*394 net87
*395 net88
*396 net89
*397 net90
*398 net91
*399 net92
*400 net93
*401 net94
*402 net95
*403 net68
*404 net96
*405 net97
*406 net69
*407 net70
*408 net71
*409 net72
*410 net73
*411 net74
*412 net75
*413 wbs_sel_i[0]
*414 wbs_sel_i[1]
*415 wbs_sel_i[2]
*416 wbs_sel_i[3]
*417 wbs_stb_i
*418 wbs_we_i
*419 _000_
*420 _001_
*421 _002_
*422 _003_
*423 _004_
*424 _005_
*425 _006_
*426 _007_
*427 _008_
*428 _009_
*429 _010_
*430 _011_
*431 _012_
*432 _013_
*433 _014_
*434 _015_
*435 _016_
*436 _017_
*437 _018_
*438 _019_
*439 _020_
*440 _021_
*441 _022_
*442 _023_
*443 _024_
*444 _025_
*445 _026_
*446 _027_
*447 _028_
*448 _029_
*449 _030_
*450 _031_
*451 _032_
*452 _033_
*453 _034_
*454 _035_
*455 _036_
*456 _037_
*457 _038_
*458 _039_
*459 _040_
*460 _041_
*461 _042_
*462 _043_
*463 _044_
*464 _045_
*465 _046_
*466 _047_
*467 _048_
*468 _049_
*469 _050_
*470 _051_
*471 _052_
*472 _053_
*473 _054_
*474 _055_
*475 _056_
*476 _057_
*477 _058_
*478 _059_
*479 _060_
*480 _061_
*481 _062_
*482 _063_
*483 _064_
*484 _065_
*485 _066_
*486 _067_
*487 _068_
*488 _069_
*489 _070_
*490 _071_
*491 _072_
*492 _073_
*493 _074_
*494 _075_
*495 _076_
*496 _077_
*497 _078_
*498 _079_
*499 _080_
*500 _081_
*501 _082_
*502 _083_
*503 _084_
*504 _085_
*505 _086_
*506 _087_
*507 _088_
*508 _089_
*509 _090_
*510 _091_
*511 _092_
*512 _093_
*513 _094_
*514 _095_
*515 _096_
*516 _097_
*517 _098_
*518 _099_
*519 _100_
*520 _101_
*521 _102_
*522 _103_
*523 _104_
*524 _105_
*525 _106_
*526 _107_
*527 _108_
*528 _109_
*529 _110_
*530 _111_
*531 _112_
*532 _113_
*533 _114_
*534 _115_
*535 _116_
*536 _117_
*537 _118_
*538 net1
*539 net10
*540 net11
*541 net12
*542 net13
*543 net14
*544 net15
*545 net16
*546 net17
*547 net18
*548 net19
*549 net2
*550 net20
*551 net21
*552 net22
*553 net23
*554 net24
*555 net25
*556 net26
*557 net27
*558 net28
*559 net29
*560 net3
*561 net30
*562 net31
*563 net32
*564 net33
*565 net34
*566 net35
*567 net36
*568 net4
*569 net5
*570 net6
*571 net7
*572 net8
*573 net9
*574 ANTENNA__119__I
*575 ANTENNA__123__A1
*576 ANTENNA__124__A1
*577 ANTENNA__124__A2
*578 ANTENNA__124__A3
*579 ANTENNA__125__A1
*580 ANTENNA__126__A1
*581 ANTENNA__127__I
*582 ANTENNA__128__A2
*583 ANTENNA__128__B2
*584 ANTENNA__129__A1
*585 ANTENNA__132__I
*586 ANTENNA__133__A2
*587 ANTENNA__134__A2
*588 ANTENNA__135__A2
*589 ANTENNA__136__I
*590 ANTENNA__138__A1
*591 ANTENNA__138__A3
*592 ANTENNA__141__A1
*593 ANTENNA__142__A1
*594 ANTENNA__147__I
*595 ANTENNA__150__A1
*596 ANTENNA__151__I
*597 ANTENNA__152__A1
*598 ANTENNA__152__A3
*599 ANTENNA__154__A1
*600 ANTENNA__155__A1
*601 ANTENNA__156__I
*602 ANTENNA__157__A1
*603 ANTENNA__157__A2
*604 ANTENNA__157__B2
*605 ANTENNA__158__A1
*606 ANTENNA__159__A1
*607 ANTENNA__160__I
*608 ANTENNA__161__I
*609 ANTENNA__162__A2
*610 ANTENNA__162__B
*611 ANTENNA__167__A1
*612 ANTENNA__169__A1
*613 ANTENNA__170__A1
*614 ANTENNA__171__A1
*615 ANTENNA__176__I
*616 ANTENNA__177__A2
*617 ANTENNA__178__A2
*618 ANTENNA__179__A2
*619 ANTENNA__179__B1
*620 ANTENNA__179__B2
*621 ANTENNA__180__I
*622 ANTENNA__181__I
*623 ANTENNA__182__A1
*624 ANTENNA__183__A1
*625 ANTENNA__184__I
*626 ANTENNA__185__A1
*627 ANTENNA__189__I
*628 ANTENNA__192__I
*629 ANTENNA__193__A2
*630 ANTENNA__195__A2
*631 ANTENNA__197__A1
*632 ANTENNA__198__A1
*633 ANTENNA__198__A2
*634 ANTENNA__200__A2
*635 ANTENNA__201__A2
*636 ANTENNA__203__I
*637 ANTENNA__206__B
*638 ANTENNA__209__I
*639 ANTENNA__210__S
*640 ANTENNA__211__A2
*641 ANTENNA__215__A1
*642 ANTENNA__216__A2
*643 ANTENNA__218__I
*644 ANTENNA__219__C
*645 ANTENNA__224__A2
*646 ANTENNA__224__C
*647 ANTENNA__225__A3
*648 ANTENNA__227__I
*649 ANTENNA__228__A1
*650 ANTENNA__228__A2
*651 ANTENNA__229__A1
*652 ANTENNA__229__A2
*653 ANTENNA__231__A1
*654 ANTENNA__232__A1
*655 ANTENNA__233__A1
*656 ANTENNA__233__B
*657 ANTENNA__235__I0
*658 ANTENNA__237__A1
*659 ANTENNA__238__A1
*660 ANTENNA__239__A1
*661 ANTENNA__239__B
*662 ANTENNA__241__S
*663 ANTENNA__242__A1
*664 ANTENNA__243__A1
*665 ANTENNA__243__C
*666 ANTENNA__245__A2
*667 ANTENNA__246__A2
*668 ANTENNA__246__B1
*669 ANTENNA__247__A2
*670 ANTENNA__249__I
*671 ANTENNA__250__A2
*672 ANTENNA_input10_I
*673 ANTENNA_input11_I
*674 ANTENNA_input12_I
*675 ANTENNA_input13_I
*676 ANTENNA_input14_I
*677 ANTENNA_input15_I
*678 ANTENNA_input16_I
*679 ANTENNA_input17_I
*680 ANTENNA_input18_I
*681 ANTENNA_input19_I
*682 ANTENNA_input1_I
*683 ANTENNA_input20_I
*684 ANTENNA_input21_I
*685 ANTENNA_input2_I
*686 ANTENNA_input3_I
*687 ANTENNA_input4_I
*688 ANTENNA_input5_I
*689 ANTENNA_input6_I
*690 ANTENNA_input7_I
*691 ANTENNA_input8_I
*692 ANTENNA_input9_I
*693 ANTENNA_output22_I
*694 ANTENNA_output23_I
*695 ANTENNA_output24_I
*696 ANTENNA_output25_I
*697 ANTENNA_output26_I
*698 ANTENNA_output31_I
*699 ANTENNA_output32_I
*700 ANTENNA_output33_I
*701 ANTENNA_output34_I
*702 ANTENNA_output35_I
*703 ANTENNA_output36_I
*704 FILLER_0_1003
*705 FILLER_0_1011
*706 FILLER_0_1017
*707 FILLER_0_102
*708 FILLER_0_1033
*709 FILLER_0_104
*710 FILLER_0_1041
*711 FILLER_0_107
*712 FILLER_0_109
*713 FILLER_0_114
*714 FILLER_0_126
*715 FILLER_0_138
*716 FILLER_0_142
*717 FILLER_0_150
*718 FILLER_0_154
*719 FILLER_0_159
*720 FILLER_0_163
*721 FILLER_0_168
*722 FILLER_0_174
*723 FILLER_0_177
*724 FILLER_0_181
*725 FILLER_0_186
*726 FILLER_0_190
*727 FILLER_0_195
*728 FILLER_0_2
*729 FILLER_0_203
*730 FILLER_0_209
*731 FILLER_0_212
*732 FILLER_0_216
*733 FILLER_0_222
*734 FILLER_0_226
*735 FILLER_0_231
*736 FILLER_0_235
*737 FILLER_0_240
*738 FILLER_0_244
*739 FILLER_0_247
*740 FILLER_0_252
*741 FILLER_0_258
*742 FILLER_0_262
*743 FILLER_0_267
*744 FILLER_0_271
*745 FILLER_0_276
*746 FILLER_0_282
*747 FILLER_0_287
*748 FILLER_0_289
*749 FILLER_0_294
*750 FILLER_0_298
*751 FILLER_0_303
*752 FILLER_0_307
*753 FILLER_0_312
*754 FILLER_0_314
*755 FILLER_0_317
*756 FILLER_0_322
*757 FILLER_0_330
*758 FILLER_0_334
*759 FILLER_0_339
*760 FILLER_0_34
*761 FILLER_0_343
*762 FILLER_0_348
*763 FILLER_0_352
*764 FILLER_0_357
*765 FILLER_0_361
*766 FILLER_0_366
*767 FILLER_0_37
*768 FILLER_0_370
*769 FILLER_0_375
*770 FILLER_0_379
*771 FILLER_0_384
*772 FILLER_0_387
*773 FILLER_0_393
*774 FILLER_0_399
*775 FILLER_0_403
*776 FILLER_0_408
*777 FILLER_0_412
*778 FILLER_0_417
*779 FILLER_0_419
*780 FILLER_0_422
*781 FILLER_0_427
*782 FILLER_0_435
*783 FILLER_0_439
*784 FILLER_0_444
*785 FILLER_0_448
*786 FILLER_0_453
*787 FILLER_0_457
*788 FILLER_0_462
*789 FILLER_0_466
*790 FILLER_0_471
*791 FILLER_0_475
*792 FILLER_0_480
*793 FILLER_0_484
*794 FILLER_0_489
*795 FILLER_0_492
*796 FILLER_0_498
*797 FILLER_0_502
*798 FILLER_0_507
*799 FILLER_0_511
*800 FILLER_0_516
*801 FILLER_0_524
*802 FILLER_0_527
*803 FILLER_0_529
*804 FILLER_0_534
*805 FILLER_0_538
*806 FILLER_0_543
*807 FILLER_0_547
*808 FILLER_0_552
*809 FILLER_0_562
*810 FILLER_0_567
*811 FILLER_0_573
*812 FILLER_0_579
*813 FILLER_0_583
*814 FILLER_0_588
*815 FILLER_0_592
*816 FILLER_0_594
*817 FILLER_0_597
*818 FILLER_0_602
*819 FILLER_0_608
*820 FILLER_0_610
*821 FILLER_0_615
*822 FILLER_0_619
*823 FILLER_0_624
*824 FILLER_0_628
*825 FILLER_0_632
*826 FILLER_0_637
*827 FILLER_0_643
*828 FILLER_0_651
*829 FILLER_0_655
*830 FILLER_0_660
*831 FILLER_0_664
*832 FILLER_0_667
*833 FILLER_0_672
*834 FILLER_0_678
*835 FILLER_0_682
*836 FILLER_0_687
*837 FILLER_0_69
*838 FILLER_0_691
*839 FILLER_0_696
*840 FILLER_0_702
*841 FILLER_0_707
*842 FILLER_0_709
*843 FILLER_0_714
*844 FILLER_0_718
*845 FILLER_0_72
*846 FILLER_0_723
*847 FILLER_0_727
*848 FILLER_0_732
*849 FILLER_0_734
*850 FILLER_0_737
*851 FILLER_0_742
*852 FILLER_0_750
*853 FILLER_0_754
*854 FILLER_0_759
*855 FILLER_0_763
*856 FILLER_0_768
*857 FILLER_0_772
*858 FILLER_0_777
*859 FILLER_0_781
*860 FILLER_0_786
*861 FILLER_0_790
*862 FILLER_0_795
*863 FILLER_0_799
*864 FILLER_0_804
*865 FILLER_0_807
*866 FILLER_0_813
*867 FILLER_0_817
*868 FILLER_0_822
*869 FILLER_0_826
*870 FILLER_0_831
*871 FILLER_0_839
*872 FILLER_0_84
*873 FILLER_0_842
*874 FILLER_0_847
*875 FILLER_0_853
*876 FILLER_0_859
*877 FILLER_0_867
*878 FILLER_0_877
*879 FILLER_0_882
*880 FILLER_0_888
*881 FILLER_0_894
*882 FILLER_0_898
*883 FILLER_0_903
*884 FILLER_0_907
*885 FILLER_0_909
*886 FILLER_0_912
*887 FILLER_0_917
*888 FILLER_0_92
*889 FILLER_0_923
*890 FILLER_0_925
*891 FILLER_0_930
*892 FILLER_0_934
*893 FILLER_0_939
*894 FILLER_0_943
*895 FILLER_0_947
*896 FILLER_0_952
*897 FILLER_0_958
*898 FILLER_0_96
*899 FILLER_0_966
*900 FILLER_0_972
*901 FILLER_0_978
*902 FILLER_0_982
*903 FILLER_0_987
*904 FILLER_100_101
*905 FILLER_100_1024
*906 FILLER_100_1028
*907 FILLER_100_1031
*908 FILLER_100_1039
*909 FILLER_100_1043
*910 FILLER_100_105
*911 FILLER_100_108
*912 FILLER_100_172
*913 FILLER_100_176
*914 FILLER_100_179
*915 FILLER_100_2
*916 FILLER_100_243
*917 FILLER_100_247
*918 FILLER_100_250
*919 FILLER_100_314
*920 FILLER_100_318
*921 FILLER_100_321
*922 FILLER_100_34
*923 FILLER_100_37
*924 FILLER_100_385
*925 FILLER_100_389
*926 FILLER_100_392
*927 FILLER_100_456
*928 FILLER_100_460
*929 FILLER_100_463
*930 FILLER_100_527
*931 FILLER_100_531
*932 FILLER_100_534
*933 FILLER_100_598
*934 FILLER_100_602
*935 FILLER_100_605
*936 FILLER_100_669
*937 FILLER_100_673
*938 FILLER_100_676
*939 FILLER_100_740
*940 FILLER_100_744
*941 FILLER_100_747
*942 FILLER_100_811
*943 FILLER_100_815
*944 FILLER_100_818
*945 FILLER_100_882
*946 FILLER_100_886
*947 FILLER_100_889
*948 FILLER_100_953
*949 FILLER_100_957
*950 FILLER_100_960
*951 FILLER_101_1028
*952 FILLER_101_1044
*953 FILLER_101_137
*954 FILLER_101_141
*955 FILLER_101_144
*956 FILLER_101_2
*957 FILLER_101_208
*958 FILLER_101_212
*959 FILLER_101_215
*960 FILLER_101_279
*961 FILLER_101_283
*962 FILLER_101_286
*963 FILLER_101_350
*964 FILLER_101_354
*965 FILLER_101_357
*966 FILLER_101_421
*967 FILLER_101_425
*968 FILLER_101_428
*969 FILLER_101_492
*970 FILLER_101_496
*971 FILLER_101_499
*972 FILLER_101_563
*973 FILLER_101_567
*974 FILLER_101_570
*975 FILLER_101_634
*976 FILLER_101_638
*977 FILLER_101_641
*978 FILLER_101_66
*979 FILLER_101_70
*980 FILLER_101_705
*981 FILLER_101_709
*982 FILLER_101_712
*983 FILLER_101_73
*984 FILLER_101_776
*985 FILLER_101_780
*986 FILLER_101_783
*987 FILLER_101_847
*988 FILLER_101_851
*989 FILLER_101_854
*990 FILLER_101_918
*991 FILLER_101_922
*992 FILLER_101_925
*993 FILLER_101_989
*994 FILLER_101_993
*995 FILLER_101_996
*996 FILLER_102_101
*997 FILLER_102_1024
*998 FILLER_102_1028
*999 FILLER_102_1031
*1000 FILLER_102_1039
*1001 FILLER_102_1043
*1002 FILLER_102_105
*1003 FILLER_102_108
*1004 FILLER_102_172
*1005 FILLER_102_176
*1006 FILLER_102_179
*1007 FILLER_102_2
*1008 FILLER_102_243
*1009 FILLER_102_247
*1010 FILLER_102_250
*1011 FILLER_102_314
*1012 FILLER_102_318
*1013 FILLER_102_321
*1014 FILLER_102_34
*1015 FILLER_102_37
*1016 FILLER_102_385
*1017 FILLER_102_389
*1018 FILLER_102_392
*1019 FILLER_102_456
*1020 FILLER_102_460
*1021 FILLER_102_463
*1022 FILLER_102_527
*1023 FILLER_102_531
*1024 FILLER_102_534
*1025 FILLER_102_598
*1026 FILLER_102_602
*1027 FILLER_102_605
*1028 FILLER_102_669
*1029 FILLER_102_673
*1030 FILLER_102_676
*1031 FILLER_102_740
*1032 FILLER_102_744
*1033 FILLER_102_747
*1034 FILLER_102_811
*1035 FILLER_102_815
*1036 FILLER_102_818
*1037 FILLER_102_882
*1038 FILLER_102_886
*1039 FILLER_102_889
*1040 FILLER_102_953
*1041 FILLER_102_957
*1042 FILLER_102_960
*1043 FILLER_103_1028
*1044 FILLER_103_1044
*1045 FILLER_103_137
*1046 FILLER_103_141
*1047 FILLER_103_144
*1048 FILLER_103_2
*1049 FILLER_103_208
*1050 FILLER_103_212
*1051 FILLER_103_215
*1052 FILLER_103_279
*1053 FILLER_103_283
*1054 FILLER_103_286
*1055 FILLER_103_350
*1056 FILLER_103_354
*1057 FILLER_103_357
*1058 FILLER_103_421
*1059 FILLER_103_425
*1060 FILLER_103_428
*1061 FILLER_103_492
*1062 FILLER_103_496
*1063 FILLER_103_499
*1064 FILLER_103_563
*1065 FILLER_103_567
*1066 FILLER_103_570
*1067 FILLER_103_634
*1068 FILLER_103_638
*1069 FILLER_103_641
*1070 FILLER_103_66
*1071 FILLER_103_70
*1072 FILLER_103_705
*1073 FILLER_103_709
*1074 FILLER_103_712
*1075 FILLER_103_73
*1076 FILLER_103_776
*1077 FILLER_103_780
*1078 FILLER_103_783
*1079 FILLER_103_847
*1080 FILLER_103_851
*1081 FILLER_103_854
*1082 FILLER_103_918
*1083 FILLER_103_922
*1084 FILLER_103_925
*1085 FILLER_103_989
*1086 FILLER_103_993
*1087 FILLER_103_996
*1088 FILLER_104_101
*1089 FILLER_104_1024
*1090 FILLER_104_1028
*1091 FILLER_104_1031
*1092 FILLER_104_1039
*1093 FILLER_104_1043
*1094 FILLER_104_105
*1095 FILLER_104_108
*1096 FILLER_104_172
*1097 FILLER_104_176
*1098 FILLER_104_179
*1099 FILLER_104_2
*1100 FILLER_104_243
*1101 FILLER_104_247
*1102 FILLER_104_250
*1103 FILLER_104_314
*1104 FILLER_104_318
*1105 FILLER_104_321
*1106 FILLER_104_34
*1107 FILLER_104_37
*1108 FILLER_104_385
*1109 FILLER_104_389
*1110 FILLER_104_392
*1111 FILLER_104_456
*1112 FILLER_104_460
*1113 FILLER_104_463
*1114 FILLER_104_527
*1115 FILLER_104_531
*1116 FILLER_104_534
*1117 FILLER_104_598
*1118 FILLER_104_602
*1119 FILLER_104_605
*1120 FILLER_104_669
*1121 FILLER_104_673
*1122 FILLER_104_676
*1123 FILLER_104_740
*1124 FILLER_104_744
*1125 FILLER_104_747
*1126 FILLER_104_811
*1127 FILLER_104_815
*1128 FILLER_104_818
*1129 FILLER_104_882
*1130 FILLER_104_886
*1131 FILLER_104_889
*1132 FILLER_104_953
*1133 FILLER_104_957
*1134 FILLER_104_960
*1135 FILLER_105_1028
*1136 FILLER_105_1044
*1137 FILLER_105_137
*1138 FILLER_105_141
*1139 FILLER_105_144
*1140 FILLER_105_2
*1141 FILLER_105_208
*1142 FILLER_105_212
*1143 FILLER_105_215
*1144 FILLER_105_279
*1145 FILLER_105_283
*1146 FILLER_105_286
*1147 FILLER_105_350
*1148 FILLER_105_354
*1149 FILLER_105_357
*1150 FILLER_105_421
*1151 FILLER_105_425
*1152 FILLER_105_428
*1153 FILLER_105_492
*1154 FILLER_105_496
*1155 FILLER_105_499
*1156 FILLER_105_563
*1157 FILLER_105_567
*1158 FILLER_105_570
*1159 FILLER_105_634
*1160 FILLER_105_638
*1161 FILLER_105_641
*1162 FILLER_105_66
*1163 FILLER_105_70
*1164 FILLER_105_705
*1165 FILLER_105_709
*1166 FILLER_105_712
*1167 FILLER_105_73
*1168 FILLER_105_776
*1169 FILLER_105_780
*1170 FILLER_105_783
*1171 FILLER_105_847
*1172 FILLER_105_851
*1173 FILLER_105_854
*1174 FILLER_105_918
*1175 FILLER_105_922
*1176 FILLER_105_925
*1177 FILLER_105_989
*1178 FILLER_105_993
*1179 FILLER_105_996
*1180 FILLER_106_101
*1181 FILLER_106_1024
*1182 FILLER_106_1028
*1183 FILLER_106_1031
*1184 FILLER_106_1039
*1185 FILLER_106_1043
*1186 FILLER_106_105
*1187 FILLER_106_108
*1188 FILLER_106_172
*1189 FILLER_106_176
*1190 FILLER_106_179
*1191 FILLER_106_2
*1192 FILLER_106_243
*1193 FILLER_106_247
*1194 FILLER_106_250
*1195 FILLER_106_314
*1196 FILLER_106_318
*1197 FILLER_106_321
*1198 FILLER_106_34
*1199 FILLER_106_37
*1200 FILLER_106_385
*1201 FILLER_106_389
*1202 FILLER_106_392
*1203 FILLER_106_456
*1204 FILLER_106_460
*1205 FILLER_106_463
*1206 FILLER_106_527
*1207 FILLER_106_531
*1208 FILLER_106_534
*1209 FILLER_106_598
*1210 FILLER_106_602
*1211 FILLER_106_605
*1212 FILLER_106_669
*1213 FILLER_106_673
*1214 FILLER_106_676
*1215 FILLER_106_740
*1216 FILLER_106_744
*1217 FILLER_106_747
*1218 FILLER_106_811
*1219 FILLER_106_815
*1220 FILLER_106_818
*1221 FILLER_106_882
*1222 FILLER_106_886
*1223 FILLER_106_889
*1224 FILLER_106_953
*1225 FILLER_106_957
*1226 FILLER_106_960
*1227 FILLER_107_1028
*1228 FILLER_107_1044
*1229 FILLER_107_137
*1230 FILLER_107_141
*1231 FILLER_107_144
*1232 FILLER_107_2
*1233 FILLER_107_208
*1234 FILLER_107_212
*1235 FILLER_107_215
*1236 FILLER_107_279
*1237 FILLER_107_283
*1238 FILLER_107_286
*1239 FILLER_107_350
*1240 FILLER_107_354
*1241 FILLER_107_357
*1242 FILLER_107_421
*1243 FILLER_107_425
*1244 FILLER_107_428
*1245 FILLER_107_492
*1246 FILLER_107_496
*1247 FILLER_107_499
*1248 FILLER_107_563
*1249 FILLER_107_567
*1250 FILLER_107_570
*1251 FILLER_107_634
*1252 FILLER_107_638
*1253 FILLER_107_641
*1254 FILLER_107_66
*1255 FILLER_107_70
*1256 FILLER_107_705
*1257 FILLER_107_709
*1258 FILLER_107_712
*1259 FILLER_107_73
*1260 FILLER_107_776
*1261 FILLER_107_780
*1262 FILLER_107_783
*1263 FILLER_107_847
*1264 FILLER_107_851
*1265 FILLER_107_854
*1266 FILLER_107_918
*1267 FILLER_107_922
*1268 FILLER_107_925
*1269 FILLER_107_989
*1270 FILLER_107_993
*1271 FILLER_107_996
*1272 FILLER_108_101
*1273 FILLER_108_1024
*1274 FILLER_108_1028
*1275 FILLER_108_1031
*1276 FILLER_108_1039
*1277 FILLER_108_1043
*1278 FILLER_108_105
*1279 FILLER_108_108
*1280 FILLER_108_172
*1281 FILLER_108_176
*1282 FILLER_108_179
*1283 FILLER_108_2
*1284 FILLER_108_243
*1285 FILLER_108_247
*1286 FILLER_108_250
*1287 FILLER_108_314
*1288 FILLER_108_318
*1289 FILLER_108_321
*1290 FILLER_108_34
*1291 FILLER_108_37
*1292 FILLER_108_385
*1293 FILLER_108_389
*1294 FILLER_108_392
*1295 FILLER_108_456
*1296 FILLER_108_460
*1297 FILLER_108_463
*1298 FILLER_108_527
*1299 FILLER_108_531
*1300 FILLER_108_534
*1301 FILLER_108_598
*1302 FILLER_108_602
*1303 FILLER_108_605
*1304 FILLER_108_669
*1305 FILLER_108_673
*1306 FILLER_108_676
*1307 FILLER_108_740
*1308 FILLER_108_744
*1309 FILLER_108_747
*1310 FILLER_108_811
*1311 FILLER_108_815
*1312 FILLER_108_818
*1313 FILLER_108_882
*1314 FILLER_108_886
*1315 FILLER_108_889
*1316 FILLER_108_953
*1317 FILLER_108_957
*1318 FILLER_108_960
*1319 FILLER_109_1028
*1320 FILLER_109_1044
*1321 FILLER_109_137
*1322 FILLER_109_141
*1323 FILLER_109_144
*1324 FILLER_109_2
*1325 FILLER_109_208
*1326 FILLER_109_212
*1327 FILLER_109_215
*1328 FILLER_109_279
*1329 FILLER_109_283
*1330 FILLER_109_286
*1331 FILLER_109_350
*1332 FILLER_109_354
*1333 FILLER_109_357
*1334 FILLER_109_421
*1335 FILLER_109_425
*1336 FILLER_109_428
*1337 FILLER_109_492
*1338 FILLER_109_496
*1339 FILLER_109_499
*1340 FILLER_109_563
*1341 FILLER_109_567
*1342 FILLER_109_570
*1343 FILLER_109_634
*1344 FILLER_109_638
*1345 FILLER_109_641
*1346 FILLER_109_66
*1347 FILLER_109_70
*1348 FILLER_109_705
*1349 FILLER_109_709
*1350 FILLER_109_712
*1351 FILLER_109_73
*1352 FILLER_109_776
*1353 FILLER_109_780
*1354 FILLER_109_783
*1355 FILLER_109_847
*1356 FILLER_109_851
*1357 FILLER_109_854
*1358 FILLER_109_918
*1359 FILLER_109_922
*1360 FILLER_109_925
*1361 FILLER_109_989
*1362 FILLER_109_993
*1363 FILLER_109_996
*1364 FILLER_10_101
*1365 FILLER_10_1024
*1366 FILLER_10_1028
*1367 FILLER_10_1031
*1368 FILLER_10_1039
*1369 FILLER_10_1043
*1370 FILLER_10_105
*1371 FILLER_10_108
*1372 FILLER_10_172
*1373 FILLER_10_176
*1374 FILLER_10_179
*1375 FILLER_10_2
*1376 FILLER_10_243
*1377 FILLER_10_247
*1378 FILLER_10_250
*1379 FILLER_10_314
*1380 FILLER_10_318
*1381 FILLER_10_321
*1382 FILLER_10_34
*1383 FILLER_10_37
*1384 FILLER_10_385
*1385 FILLER_10_389
*1386 FILLER_10_392
*1387 FILLER_10_456
*1388 FILLER_10_460
*1389 FILLER_10_463
*1390 FILLER_10_527
*1391 FILLER_10_531
*1392 FILLER_10_534
*1393 FILLER_10_598
*1394 FILLER_10_602
*1395 FILLER_10_605
*1396 FILLER_10_669
*1397 FILLER_10_673
*1398 FILLER_10_676
*1399 FILLER_10_740
*1400 FILLER_10_744
*1401 FILLER_10_747
*1402 FILLER_10_811
*1403 FILLER_10_815
*1404 FILLER_10_818
*1405 FILLER_10_882
*1406 FILLER_10_886
*1407 FILLER_10_889
*1408 FILLER_10_953
*1409 FILLER_10_957
*1410 FILLER_10_960
*1411 FILLER_110_101
*1412 FILLER_110_1024
*1413 FILLER_110_1028
*1414 FILLER_110_1031
*1415 FILLER_110_1039
*1416 FILLER_110_1043
*1417 FILLER_110_105
*1418 FILLER_110_108
*1419 FILLER_110_172
*1420 FILLER_110_176
*1421 FILLER_110_179
*1422 FILLER_110_2
*1423 FILLER_110_243
*1424 FILLER_110_247
*1425 FILLER_110_250
*1426 FILLER_110_314
*1427 FILLER_110_318
*1428 FILLER_110_321
*1429 FILLER_110_34
*1430 FILLER_110_37
*1431 FILLER_110_385
*1432 FILLER_110_389
*1433 FILLER_110_392
*1434 FILLER_110_456
*1435 FILLER_110_460
*1436 FILLER_110_463
*1437 FILLER_110_527
*1438 FILLER_110_531
*1439 FILLER_110_534
*1440 FILLER_110_598
*1441 FILLER_110_602
*1442 FILLER_110_605
*1443 FILLER_110_669
*1444 FILLER_110_673
*1445 FILLER_110_676
*1446 FILLER_110_740
*1447 FILLER_110_744
*1448 FILLER_110_747
*1449 FILLER_110_811
*1450 FILLER_110_815
*1451 FILLER_110_818
*1452 FILLER_110_882
*1453 FILLER_110_886
*1454 FILLER_110_889
*1455 FILLER_110_953
*1456 FILLER_110_957
*1457 FILLER_110_960
*1458 FILLER_111_1028
*1459 FILLER_111_1044
*1460 FILLER_111_137
*1461 FILLER_111_141
*1462 FILLER_111_144
*1463 FILLER_111_2
*1464 FILLER_111_208
*1465 FILLER_111_212
*1466 FILLER_111_215
*1467 FILLER_111_279
*1468 FILLER_111_283
*1469 FILLER_111_286
*1470 FILLER_111_350
*1471 FILLER_111_354
*1472 FILLER_111_357
*1473 FILLER_111_421
*1474 FILLER_111_425
*1475 FILLER_111_428
*1476 FILLER_111_492
*1477 FILLER_111_496
*1478 FILLER_111_499
*1479 FILLER_111_563
*1480 FILLER_111_567
*1481 FILLER_111_570
*1482 FILLER_111_634
*1483 FILLER_111_638
*1484 FILLER_111_641
*1485 FILLER_111_66
*1486 FILLER_111_70
*1487 FILLER_111_705
*1488 FILLER_111_709
*1489 FILLER_111_712
*1490 FILLER_111_73
*1491 FILLER_111_776
*1492 FILLER_111_780
*1493 FILLER_111_783
*1494 FILLER_111_847
*1495 FILLER_111_851
*1496 FILLER_111_854
*1497 FILLER_111_918
*1498 FILLER_111_922
*1499 FILLER_111_925
*1500 FILLER_111_989
*1501 FILLER_111_993
*1502 FILLER_111_996
*1503 FILLER_112_101
*1504 FILLER_112_1024
*1505 FILLER_112_1028
*1506 FILLER_112_1031
*1507 FILLER_112_1039
*1508 FILLER_112_1043
*1509 FILLER_112_105
*1510 FILLER_112_108
*1511 FILLER_112_172
*1512 FILLER_112_176
*1513 FILLER_112_179
*1514 FILLER_112_2
*1515 FILLER_112_243
*1516 FILLER_112_247
*1517 FILLER_112_250
*1518 FILLER_112_314
*1519 FILLER_112_318
*1520 FILLER_112_321
*1521 FILLER_112_34
*1522 FILLER_112_37
*1523 FILLER_112_385
*1524 FILLER_112_389
*1525 FILLER_112_392
*1526 FILLER_112_456
*1527 FILLER_112_460
*1528 FILLER_112_463
*1529 FILLER_112_527
*1530 FILLER_112_531
*1531 FILLER_112_534
*1532 FILLER_112_598
*1533 FILLER_112_602
*1534 FILLER_112_605
*1535 FILLER_112_669
*1536 FILLER_112_673
*1537 FILLER_112_676
*1538 FILLER_112_740
*1539 FILLER_112_744
*1540 FILLER_112_747
*1541 FILLER_112_811
*1542 FILLER_112_815
*1543 FILLER_112_818
*1544 FILLER_112_882
*1545 FILLER_112_886
*1546 FILLER_112_889
*1547 FILLER_112_953
*1548 FILLER_112_957
*1549 FILLER_112_960
*1550 FILLER_113_1028
*1551 FILLER_113_1044
*1552 FILLER_113_137
*1553 FILLER_113_141
*1554 FILLER_113_144
*1555 FILLER_113_2
*1556 FILLER_113_208
*1557 FILLER_113_212
*1558 FILLER_113_215
*1559 FILLER_113_279
*1560 FILLER_113_283
*1561 FILLER_113_286
*1562 FILLER_113_350
*1563 FILLER_113_354
*1564 FILLER_113_357
*1565 FILLER_113_421
*1566 FILLER_113_425
*1567 FILLER_113_428
*1568 FILLER_113_492
*1569 FILLER_113_496
*1570 FILLER_113_499
*1571 FILLER_113_563
*1572 FILLER_113_567
*1573 FILLER_113_570
*1574 FILLER_113_634
*1575 FILLER_113_638
*1576 FILLER_113_641
*1577 FILLER_113_66
*1578 FILLER_113_70
*1579 FILLER_113_705
*1580 FILLER_113_709
*1581 FILLER_113_712
*1582 FILLER_113_73
*1583 FILLER_113_776
*1584 FILLER_113_780
*1585 FILLER_113_783
*1586 FILLER_113_847
*1587 FILLER_113_851
*1588 FILLER_113_854
*1589 FILLER_113_918
*1590 FILLER_113_922
*1591 FILLER_113_925
*1592 FILLER_113_989
*1593 FILLER_113_993
*1594 FILLER_113_996
*1595 FILLER_114_101
*1596 FILLER_114_1024
*1597 FILLER_114_1028
*1598 FILLER_114_1031
*1599 FILLER_114_1039
*1600 FILLER_114_1043
*1601 FILLER_114_105
*1602 FILLER_114_108
*1603 FILLER_114_172
*1604 FILLER_114_176
*1605 FILLER_114_179
*1606 FILLER_114_2
*1607 FILLER_114_243
*1608 FILLER_114_247
*1609 FILLER_114_250
*1610 FILLER_114_314
*1611 FILLER_114_318
*1612 FILLER_114_321
*1613 FILLER_114_34
*1614 FILLER_114_37
*1615 FILLER_114_385
*1616 FILLER_114_389
*1617 FILLER_114_392
*1618 FILLER_114_456
*1619 FILLER_114_460
*1620 FILLER_114_463
*1621 FILLER_114_527
*1622 FILLER_114_531
*1623 FILLER_114_534
*1624 FILLER_114_598
*1625 FILLER_114_602
*1626 FILLER_114_605
*1627 FILLER_114_669
*1628 FILLER_114_673
*1629 FILLER_114_676
*1630 FILLER_114_740
*1631 FILLER_114_744
*1632 FILLER_114_747
*1633 FILLER_114_811
*1634 FILLER_114_815
*1635 FILLER_114_818
*1636 FILLER_114_882
*1637 FILLER_114_886
*1638 FILLER_114_889