*SPEF "ieee 1481-1999"
*DESIGN "macro_decap"
*DATE "11:11:11 Fri 11 11, 1111"
*VENDOR "OpenRCX"
*PROGRAM "Parallel Extraction"
*VERSION "1.0"
*DESIGN_FLOW "NAME_SCOPE LOCAL" "PIN_CAP NONE"
*DIVIDER /
*DELIMITER :
*BUS_DELIMITER []
*T_UNIT 1 NS
*C_UNIT 1 PF
*R_UNIT 1 OHM
*L_UNIT 1 HENRY

*NAME_MAP
*1 io_active
*2 io_in[0]
*3 io_in[10]
*4 io_in[11]
*5 io_in[12]
*6 io_in[13]
*7 io_in[14]
*8 io_in[15]
*9 io_in[16]
*10 io_in[17]
*11 io_in[18]
*12 io_in[19]
*13 io_in[1]
*14 io_in[20]
*15 io_in[21]
*16 io_in[22]
*17 io_in[23]
*18 io_in[24]
*19 io_in[25]
*20 io_in[26]
*21 io_in[27]
*22 io_in[28]
*23 io_in[29]
*24 io_in[2]
*25 io_in[30]
*26 io_in[31]
*27 io_in[32]
*28 io_in[33]
*29 io_in[34]
*30 io_in[35]
*31 io_in[36]
*32 io_in[37]
*33 io_in[3]
*34 io_in[4]
*35 io_in[5]
*36 io_in[6]
*37 io_in[7]
*38 io_in[8]
*39 io_in[9]
*40 net40
*41 net50
*42 net51
*43 net52
*44 net53
*45 net54
*46 net55
*47 net56
*48 net57
*49 net58
*50 net59
*51 net41
*52 net60
*53 net61
*54 net62
*55 net63
*56 net64
*57 net65
*58 net66
*59 net67
*60 net68
*61 net69
*62 net42
*63 net70
*64 net71
*65 net72
*66 net73
*67 net74
*68 net75
*69 net76
*70 net77
*71 net43
*72 net44
*73 net45
*74 net46
*75 net47
*76 net48
*77 net49
*78 net2
*79 net12
*80 net13
*81 net14
*82 net15
*83 net16
*84 net17
*85 net18
*86 net19
*87 net20
*88 net21
*89 net3
*90 net22
*91 net23
*92 net24
*93 net25
*94 net26
*95 net27
*96 net28
*97 net29
*98 net30
*99 net31
*100 net4
*101 net32
*102 net33
*103 net34
*104 net35
*105 net36
*106 net37
*107 net38
*108 net39
*109 net5
*110 net6
*111 net7
*112 net8
*113 net9
*114 net10
*115 net11
*116 net175
*117 net176
*118 net1
*119 la_data_in[0]
*120 la_data_in[10]
*121 la_data_in[11]
*122 la_data_in[12]
*123 la_data_in[13]
*124 la_data_in[14]
*125 la_data_in[15]
*126 la_data_in[16]
*127 la_data_in[17]
*128 la_data_in[18]
*129 la_data_in[19]
*130 la_data_in[1]
*131 la_data_in[20]
*132 la_data_in[21]
*133 la_data_in[22]
*134 la_data_in[23]
*135 la_data_in[24]
*136 la_data_in[25]
*137 la_data_in[26]
*138 la_data_in[27]
*139 la_data_in[28]
*140 la_data_in[29]
*141 la_data_in[2]
*142 la_data_in[30]
*143 la_data_in[31]
*144 la_data_in[32]
*145 la_data_in[33]
*146 la_data_in[34]
*147 la_data_in[35]
*148 la_data_in[36]
*149 la_data_in[37]
*150 la_data_in[38]
*151 la_data_in[39]
*152 la_data_in[3]
*153 la_data_in[40]
*154 la_data_in[41]
*155 la_data_in[42]
*156 la_data_in[43]
*157 la_data_in[44]
*158 la_data_in[45]
*159 la_data_in[46]
*160 la_data_in[47]
*161 la_data_in[48]
*162 la_data_in[49]
*163 la_data_in[4]
*164 la_data_in[50]
*165 la_data_in[51]
*166 la_data_in[52]
*167 la_data_in[53]
*168 la_data_in[54]
*169 la_data_in[55]
*170 la_data_in[56]
*171 la_data_in[57]
*172 la_data_in[58]
*173 la_data_in[59]
*174 la_data_in[5]
*175 la_data_in[60]
*176 la_data_in[61]
*177 la_data_in[62]
*178 la_data_in[63]
*179 la_data_in[6]
*180 la_data_in[7]
*181 la_data_in[8]
*182 la_data_in[9]
*183 net78
*184 net88
*185 net89
*186 net90
*187 net91
*188 net92
*189 net93
*190 net94
*191 net95
*192 net96
*193 net97
*194 net79
*195 net98
*196 net99
*197 net100
*198 net101
*199 net102
*200 net103
*201 net104
*202 net105
*203 net106
*204 net107
*205 net80
*206 net108
*207 net109
*208 net110
*209 net111
*210 net112
*211 net113
*212 net114
*213 net115
*214 net116
*215 net117
*216 net81
*217 net118
*218 net119
*219 net120
*220 net121
*221 net122
*222 net123
*223 net124
*224 net125
*225 net126
*226 net127
*227 net82
*228 net128
*229 net129
*230 net130
*231 net131
*232 net132
*233 net133
*234 net134
*235 net135
*236 net136
*237 net137
*238 net83
*239 net138
*240 net139
*241 net140
*242 net141
*243 net84
*244 net85
*245 net86
*246 net87
*247 la_oenb[0]
*248 la_oenb[10]
*249 la_oenb[11]
*250 la_oenb[12]
*251 la_oenb[13]
*252 la_oenb[14]
*253 la_oenb[15]
*254 la_oenb[16]
*255 la_oenb[17]
*256 la_oenb[18]
*257 la_oenb[19]
*258 la_oenb[1]
*259 la_oenb[20]
*260 la_oenb[21]
*261 la_oenb[22]
*262 la_oenb[23]
*263 la_oenb[24]
*264 la_oenb[25]
*265 la_oenb[26]
*266 la_oenb[27]
*267 la_oenb[28]
*268 la_oenb[29]
*269 la_oenb[2]
*270 la_oenb[30]
*271 la_oenb[31]
*272 la_oenb[32]
*273 la_oenb[33]
*274 la_oenb[34]
*275 la_oenb[35]
*276 la_oenb[36]
*277 la_oenb[37]
*278 la_oenb[38]
*279 la_oenb[39]
*280 la_oenb[3]
*281 la_oenb[40]
*282 la_oenb[41]
*283 la_oenb[42]
*284 la_oenb[43]
*285 la_oenb[44]
*286 la_oenb[45]
*287 la_oenb[46]
*288 la_oenb[47]
*289 la_oenb[48]
*290 la_oenb[49]
*291 la_oenb[4]
*292 la_oenb[50]
*293 la_oenb[51]
*294 la_oenb[52]
*295 la_oenb[53]
*296 la_oenb[54]
*297 la_oenb[55]
*298 la_oenb[56]
*299 la_oenb[57]
*300 la_oenb[58]
*301 la_oenb[59]
*302 la_oenb[5]
*303 la_oenb[60]
*304 la_oenb[61]
*305 la_oenb[62]
*306 la_oenb[63]
*307 la_oenb[6]
*308 la_oenb[7]
*309 la_oenb[8]
*310 la_oenb[9]
*313 wb_clk_i
*314 wb_rst_i
*315 net142
*316 wbs_adr_i[0]
*317 wbs_adr_i[10]
*318 wbs_adr_i[11]
*319 wbs_adr_i[12]
*320 wbs_adr_i[13]
*321 wbs_adr_i[14]
*322 wbs_adr_i[15]
*323 wbs_adr_i[16]
*324 wbs_adr_i[17]
*325 wbs_adr_i[18]
*326 wbs_adr_i[19]
*327 wbs_adr_i[1]
*328 wbs_adr_i[20]
*329 wbs_adr_i[21]
*330 wbs_adr_i[22]
*331 wbs_adr_i[23]
*332 wbs_adr_i[24]
*333 wbs_adr_i[25]
*334 wbs_adr_i[26]
*335 wbs_adr_i[27]
*336 wbs_adr_i[28]
*337 wbs_adr_i[29]
*338 wbs_adr_i[2]
*339 wbs_adr_i[30]
*340 wbs_adr_i[31]
*341 wbs_adr_i[3]
*342 wbs_adr_i[4]
*343 wbs_adr_i[5]
*344 wbs_adr_i[6]
*345 wbs_adr_i[7]
*346 wbs_adr_i[8]
*347 wbs_adr_i[9]
*348 wbs_cyc_i
*349 wbs_dat_i[0]
*350 wbs_dat_i[10]
*351 wbs_dat_i[11]
*352 wbs_dat_i[12]
*353 wbs_dat_i[13]
*354 wbs_dat_i[14]
*355 wbs_dat_i[15]
*356 wbs_dat_i[16]
*357 wbs_dat_i[17]
*358 wbs_dat_i[18]
*359 wbs_dat_i[19]
*360 wbs_dat_i[1]
*361 wbs_dat_i[20]
*362 wbs_dat_i[21]
*363 wbs_dat_i[22]
*364 wbs_dat_i[23]
*365 wbs_dat_i[24]
*366 wbs_dat_i[25]
*367 wbs_dat_i[26]
*368 wbs_dat_i[27]
*369 wbs_dat_i[28]
*370 wbs_dat_i[29]
*371 wbs_dat_i[2]
*372 wbs_dat_i[30]
*373 wbs_dat_i[31]
*374 wbs_dat_i[3]
*375 wbs_dat_i[4]
*376 wbs_dat_i[5]
*377 wbs_dat_i[6]
*378 wbs_dat_i[7]
*379 wbs_dat_i[8]
*380 wbs_dat_i[9]
*381 net143
*382 net153
*383 net154
*384 net155
*385 net156
*386 net157
*387 net158
*388 net159
*389 net160
*390 net161
*391 net162
*392 net144
*393 net163
*394 net164
*395 net165
*396 net166
*397 net167
*398 net168
*399 net169
*400 net170
*401 net171
*402 net172
*403 net145
*404 net173
*405 net174
*406 net146
*407 net147
*408 net148
*409 net149
*410 net150
*411 net151
*412 net152
*413 wbs_sel_i[0]
*414 wbs_sel_i[1]
*415 wbs_sel_i[2]
*416 wbs_sel_i[3]
*417 wbs_stb_i
*418 wbs_we_i
*419 FILLER_0_1003
*420 FILLER_0_1011
*421 FILLER_0_1017
*422 FILLER_0_102
*423 FILLER_0_1033
*424 FILLER_0_104
*425 FILLER_0_1041
*426 FILLER_0_107
*427 FILLER_0_109
*428 FILLER_0_114
*429 FILLER_0_126
*430 FILLER_0_138
*431 FILLER_0_142
*432 FILLER_0_150
*433 FILLER_0_154
*434 FILLER_0_159
*435 FILLER_0_163
*436 FILLER_0_168
*437 FILLER_0_174
*438 FILLER_0_177
*439 FILLER_0_181
*440 FILLER_0_186
*441 FILLER_0_190
*442 FILLER_0_195
*443 FILLER_0_2
*444 FILLER_0_203
*445 FILLER_0_209
*446 FILLER_0_212
*447 FILLER_0_216
*448 FILLER_0_222
*449 FILLER_0_226
*450 FILLER_0_231
*451 FILLER_0_235
*452 FILLER_0_240
*453 FILLER_0_244
*454 FILLER_0_247
*455 FILLER_0_252
*456 FILLER_0_258
*457 FILLER_0_262
*458 FILLER_0_267
*459 FILLER_0_271
*460 FILLER_0_276
*461 FILLER_0_282
*462 FILLER_0_287
*463 FILLER_0_289
*464 FILLER_0_294
*465 FILLER_0_298
*466 FILLER_0_303
*467 FILLER_0_307
*468 FILLER_0_312
*469 FILLER_0_314
*470 FILLER_0_317
*471 FILLER_0_322
*472 FILLER_0_330
*473 FILLER_0_334
*474 FILLER_0_339
*475 FILLER_0_34
*476 FILLER_0_343
*477 FILLER_0_348
*478 FILLER_0_352
*479 FILLER_0_357
*480 FILLER_0_361
*481 FILLER_0_366
*482 FILLER_0_37
*483 FILLER_0_370
*484 FILLER_0_375
*485 FILLER_0_379
*486 FILLER_0_384
*487 FILLER_0_387
*488 FILLER_0_393
*489 FILLER_0_399
*490 FILLER_0_403
*491 FILLER_0_408
*492 FILLER_0_412
*493 FILLER_0_417
*494 FILLER_0_419
*495 FILLER_0_422
*496 FILLER_0_427
*497 FILLER_0_435
*498 FILLER_0_439
*499 FILLER_0_444
*500 FILLER_0_448
*501 FILLER_0_453
*502 FILLER_0_457
*503 FILLER_0_462
*504 FILLER_0_466
*505 FILLER_0_471
*506 FILLER_0_475
*507 FILLER_0_480
*508 FILLER_0_484
*509 FILLER_0_489
*510 FILLER_0_492
*511 FILLER_0_498
*512 FILLER_0_502
*513 FILLER_0_507
*514 FILLER_0_511
*515 FILLER_0_516
*516 FILLER_0_524
*517 FILLER_0_527
*518 FILLER_0_529
*519 FILLER_0_534
*520 FILLER_0_538
*521 FILLER_0_543
*522 FILLER_0_547
*523 FILLER_0_552
*524 FILLER_0_562
*525 FILLER_0_567
*526 FILLER_0_573
*527 FILLER_0_579
*528 FILLER_0_583
*529 FILLER_0_588
*530 FILLER_0_592
*531 FILLER_0_594
*532 FILLER_0_597
*533 FILLER_0_602
*534 FILLER_0_608
*535 FILLER_0_610
*536 FILLER_0_615
*537 FILLER_0_619
*538 FILLER_0_624
*539 FILLER_0_628
*540 FILLER_0_632
*541 FILLER_0_637
*542 FILLER_0_643
*543 FILLER_0_651
*544 FILLER_0_655
*545 FILLER_0_660
*546 FILLER_0_664
*547 FILLER_0_667
*548 FILLER_0_672
*549 FILLER_0_678
*550 FILLER_0_682
*551 FILLER_0_687
*552 FILLER_0_69
*553 FILLER_0_691
*554 FILLER_0_696
*555 FILLER_0_702
*556 FILLER_0_707
*557 FILLER_0_709
*558 FILLER_0_714
*559 FILLER_0_718
*560 FILLER_0_72
*561 FILLER_0_723
*562 FILLER_0_727
*563 FILLER_0_732
*564 FILLER_0_734
*565 FILLER_0_737
*566 FILLER_0_742
*567 FILLER_0_750
*568 FILLER_0_754
*569 FILLER_0_759
*570 FILLER_0_763
*571 FILLER_0_768
*572 FILLER_0_772
*573 FILLER_0_777
*574 FILLER_0_781
*575 FILLER_0_786
*576 FILLER_0_790
*577 FILLER_0_795
*578 FILLER_0_799
*579 FILLER_0_804
*580 FILLER_0_807
*581 FILLER_0_813
*582 FILLER_0_817
*583 FILLER_0_822
*584 FILLER_0_826
*585 FILLER_0_831
*586 FILLER_0_839
*587 FILLER_0_84
*588 FILLER_0_842
*589 FILLER_0_847
*590 FILLER_0_853
*591 FILLER_0_859
*592 FILLER_0_867
*593 FILLER_0_877
*594 FILLER_0_882
*595 FILLER_0_888
*596 FILLER_0_894
*597 FILLER_0_898
*598 FILLER_0_903
*599 FILLER_0_907
*600 FILLER_0_909
*601 FILLER_0_912
*602 FILLER_0_917
*603 FILLER_0_92
*604 FILLER_0_923
*605 FILLER_0_925
*606 FILLER_0_930
*607 FILLER_0_934
*608 FILLER_0_939
*609 FILLER_0_943
*610 FILLER_0_947
*611 FILLER_0_952
*612 FILLER_0_958
*613 FILLER_0_96
*614 FILLER_0_966
*615 FILLER_0_972
*616 FILLER_0_978
*617 FILLER_0_982
*618 FILLER_0_987
*619 FILLER_100_101
*620 FILLER_100_1024
*621 FILLER_100_1028
*622 FILLER_100_1031
*623 FILLER_100_1039
*624 FILLER_100_1043
*625 FILLER_100_105
*626 FILLER_100_108
*627 FILLER_100_172
*628 FILLER_100_176
*629 FILLER_100_179
*630 FILLER_100_2
*631 FILLER_100_243
*632 FILLER_100_247
*633 FILLER_100_250
*634 FILLER_100_314
*635 FILLER_100_318
*636 FILLER_100_321
*637 FILLER_100_34
*638 FILLER_100_37
*639 FILLER_100_385
*640 FILLER_100_389
*641 FILLER_100_392
*642 FILLER_100_456
*643 FILLER_100_460
*644 FILLER_100_463
*645 FILLER_100_527
*646 FILLER_100_531
*647 FILLER_100_534
*648 FILLER_100_598
*649 FILLER_100_602
*650 FILLER_100_605
*651 FILLER_100_669
*652 FILLER_100_673
*653 FILLER_100_676
*654 FILLER_100_740
*655 FILLER_100_744
*656 FILLER_100_747
*657 FILLER_100_811
*658 FILLER_100_815
*659 FILLER_100_818
*660 FILLER_100_882
*661 FILLER_100_886
*662 FILLER_100_889
*663 FILLER_100_953
*664 FILLER_100_957
*665 FILLER_100_960
*666 FILLER_101_1028
*667 FILLER_101_1044
*668 FILLER_101_137
*669 FILLER_101_141
*670 FILLER_101_144
*671 FILLER_101_2
*672 FILLER_101_208
*673 FILLER_101_212
*674 FILLER_101_215
*675 FILLER_101_279
*676 FILLER_101_283
*677 FILLER_101_286
*678 FILLER_101_350
*679 FILLER_101_354
*680 FILLER_101_357
*681 FILLER_101_421
*682 FILLER_101_425
*683 FILLER_101_428
*684 FILLER_101_492
*685 FILLER_101_496
*686 FILLER_101_499
*687 FILLER_101_563
*688 FILLER_101_567
*689 FILLER_101_570
*690 FILLER_101_634
*691 FILLER_101_638
*692 FILLER_101_641
*693 FILLER_101_66
*694 FILLER_101_70
*695 FILLER_101_705
*696 FILLER_101_709
*697 FILLER_101_712
*698 FILLER_101_73
*699 FILLER_101_776
*700 FILLER_101_780
*701 FILLER_101_783
*702 FILLER_101_847
*703 FILLER_101_851
*704 FILLER_101_854
*705 FILLER_101_918
*706 FILLER_101_922
*707 FILLER_101_925
*708 FILLER_101_989
*709 FILLER_101_993
*710 FILLER_101_996
*711 FILLER_102_101
*712 FILLER_102_1024
*713 FILLER_102_1028
*714 FILLER_102_1031
*715 FILLER_102_1039
*716 FILLER_102_1043
*717 FILLER_102_105
*718 FILLER_102_108
*719 FILLER_102_172
*720 FILLER_102_176
*721 FILLER_102_179
*722 FILLER_102_2
*723 FILLER_102_243
*724 FILLER_102_247
*725 FILLER_102_250
*726 FILLER_102_314
*727 FILLER_102_318
*728 FILLER_102_321
*729 FILLER_102_34
*730 FILLER_102_37
*731 FILLER_102_385
*732 FILLER_102_389
*733 FILLER_102_392
*734 FILLER_102_456
*735 FILLER_102_460
*736 FILLER_102_463
*737 FILLER_102_527
*738 FILLER_102_531
*739 FILLER_102_534
*740 FILLER_102_598
*741 FILLER_102_602
*742 FILLER_102_605
*743 FILLER_102_669
*744 FILLER_102_673
*745 FILLER_102_676
*746 FILLER_102_740
*747 FILLER_102_744
*748 FILLER_102_747
*749 FILLER_102_811
*750 FILLER_102_815
*751 FILLER_102_818
*752 FILLER_102_882
*753 FILLER_102_886
*754 FILLER_102_889
*755 FILLER_102_953
*756 FILLER_102_957
*757 FILLER_102_960
*758 FILLER_103_1028
*759 FILLER_103_1044
*760 FILLER_103_137
*761 FILLER_103_141
*762 FILLER_103_144
*763 FILLER_103_2
*764 FILLER_103_208
*765 FILLER_103_212
*766 FILLER_103_215
*767 FILLER_103_279
*768 FILLER_103_283
*769 FILLER_103_286
*770 FILLER_103_350
*771 FILLER_103_354
*772 FILLER_103_357
*773 FILLER_103_421
*774 FILLER_103_425
*775 FILLER_103_428
*776 FILLER_103_492
*777 FILLER_103_496
*778 FILLER_103_499
*779 FILLER_103_563
*780 FILLER_103_567
*781 FILLER_103_570
*782 FILLER_103_634
*783 FILLER_103_638
*784 FILLER_103_641
*785 FILLER_103_66
*786 FILLER_103_70
*787 FILLER_103_705
*788 FILLER_103_709
*789 FILLER_103_712
*790 FILLER_103_73
*791 FILLER_103_776
*792 FILLER_103_780
*793 FILLER_103_783
*794 FILLER_103_847
*795 FILLER_103_851
*796 FILLER_103_854
*797 FILLER_103_918
*798 FILLER_103_922
*799 FILLER_103_925
*800 FILLER_103_989
*801 FILLER_103_993
*802 FILLER_103_996
*803 FILLER_104_101
*804 FILLER_104_1024
*805 FILLER_104_1028
*806 FILLER_104_1031
*807 FILLER_104_1039
*808 FILLER_104_1043
*809 FILLER_104_105
*810 FILLER_104_108
*811 FILLER_104_172
*812 FILLER_104_176
*813 FILLER_104_179
*814 FILLER_104_2
*815 FILLER_104_243
*816 FILLER_104_247
*817 FILLER_104_250
*818 FILLER_104_314
*819 FILLER_104_318
*820 FILLER_104_321
*821 FILLER_104_34
*822 FILLER_104_37
*823 FILLER_104_385
*824 FILLER_104_389
*825 FILLER_104_392
*826 FILLER_104_456
*827 FILLER_104_460
*828 FILLER_104_463
*829 FILLER_104_527
*830 FILLER_104_531
*831 FILLER_104_534
*832 FILLER_104_598
*833 FILLER_104_602
*834 FILLER_104_605
*835 FILLER_104_669
*836 FILLER_104_673
*837 FILLER_104_676
*838 FILLER_104_740
*839 FILLER_104_744
*840 FILLER_104_747
*841 FILLER_104_811
*842 FILLER_104_815
*843 FILLER_104_818
*844 FILLER_104_882
*845 FILLER_104_886
*846 FILLER_104_889
*847 FILLER_104_953
*848 FILLER_104_957
*849 FILLER_104_960
*850 FILLER_105_1028
*851 FILLER_105_1044
*852 FILLER_105_137
*853 FILLER_105_141
*854 FILLER_105_144
*855 FILLER_105_2
*856 FILLER_105_208
*857 FILLER_105_212
*858 FILLER_105_215
*859 FILLER_105_279
*860 FILLER_105_283
*861 FILLER_105_286
*862 FILLER_105_350
*863 FILLER_105_354
*864 FILLER_105_357
*865 FILLER_105_421
*866 FILLER_105_425
*867 FILLER_105_428
*868 FILLER_105_492
*869 FILLER_105_496
*870 FILLER_105_499
*871 FILLER_105_563
*872 FILLER_105_567
*873 FILLER_105_570
*874 FILLER_105_634
*875 FILLER_105_638
*876 FILLER_105_641
*877 FILLER_105_66
*878 FILLER_105_70
*879 FILLER_105_705
*880 FILLER_105_709
*881 FILLER_105_712
*882 FILLER_105_73
*883 FILLER_105_776
*884 FILLER_105_780
*885 FILLER_105_783
*886 FILLER_105_847
*887 FILLER_105_851
*888 FILLER_105_854
*889 FILLER_105_918
*890 FILLER_105_922
*891 FILLER_105_925
*892 FILLER_105_989
*893 FILLER_105_993
*894 FILLER_105_996
*895 FILLER_106_101
*896 FILLER_106_1024
*897 FILLER_106_1028
*898 FILLER_106_1031
*899 FILLER_106_1039
*900 FILLER_106_1043
*901 FILLER_106_105
*902 FILLER_106_108
*903 FILLER_106_172
*904 FILLER_106_176
*905 FILLER_106_179
*906 FILLER_106_2
*907 FILLER_106_243
*908 FILLER_106_247
*909 FILLER_106_250
*910 FILLER_106_314
*911 FILLER_106_318
*912 FILLER_106_321
*913 FILLER_106_34
*914 FILLER_106_37
*915 FILLER_106_385
*916 FILLER_106_389
*917 FILLER_106_392
*918 FILLER_106_456
*919 FILLER_106_460
*920 FILLER_106_463
*921 FILLER_106_527
*922 FILLER_106_531
*923 FILLER_106_534
*924 FILLER_106_598
*925 FILLER_106_602
*926 FILLER_106_605
*927 FILLER_106_669
*928 FILLER_106_673
*929 FILLER_106_676
*930 FILLER_106_740
*931 FILLER_106_744
*932 FILLER_106_747
*933 FILLER_106_811
*934 FILLER_106_815
*935 FILLER_106_818
*936 FILLER_106_882
*937 FILLER_106_886
*938 FILLER_106_889
*939 FILLER_106_953
*940 FILLER_106_957
*941 FILLER_106_960
*942 FILLER_107_1028
*943 FILLER_107_1044
*944 FILLER_107_137
*945 FILLER_107_141
*946 FILLER_107_144
*947 FILLER_107_2
*948 FILLER_107_208
*949 FILLER_107_212
*950 FILLER_107_215
*951 FILLER_107_279
*952 FILLER_107_283
*953 FILLER_107_286
*954 FILLER_107_350
*955 FILLER_107_354
*956 FILLER_107_357
*957 FILLER_107_421
*958 FILLER_107_425
*959 FILLER_107_428
*960 FILLER_107_492
*961 FILLER_107_496
*962 FILLER_107_499
*963 FILLER_107_563
*964 FILLER_107_567
*965 FILLER_107_570
*966 FILLER_107_634
*967 FILLER_107_638
*968 FILLER_107_641
*969 FILLER_107_66
*970 FILLER_107_70
*971 FILLER_107_705
*972 FILLER_107_709
*973 FILLER_107_712
*974 FILLER_107_73
*975 FILLER_107_776
*976 FILLER_107_780
*977 FILLER_107_783
*978 FILLER_107_847
*979 FILLER_107_851
*980 FILLER_107_854
*981 FILLER_107_918
*982 FILLER_107_922
*983 FILLER_107_925
*984 FILLER_107_989
*985 FILLER_107_993
*986 FILLER_107_996
*987 FILLER_108_101
*988 FILLER_108_1024
*989 FILLER_108_1028
*990 FILLER_108_1031
*991 FILLER_108_1039
*992 FILLER_108_1043
*993 FILLER_108_105
*994 FILLER_108_108
*995 FILLER_108_172
*996 FILLER_108_176
*997 FILLER_108_179
*998 FILLER_108_2
*999 FILLER_108_243
*1000 FILLER_108_247
*1001 FILLER_108_250
*1002 FILLER_108_314
*1003 FILLER_108_318
*1004 FILLER_108_321
*1005 FILLER_108_34
*1006 FILLER_108_37
*1007 FILLER_108_385
*1008 FILLER_108_389
*1009 FILLER_108_392
*1010 FILLER_108_456
*1011 FILLER_108_460
*1012 FILLER_108_463
*1013 FILLER_108_527
*1014 FILLER_108_531
*1015 FILLER_108_534
*1016 FILLER_108_598
*1017 FILLER_108_602
*1018 FILLER_108_605
*1019 FILLER_108_669
*1020 FILLER_108_673
*1021 FILLER_108_676
*1022 FILLER_108_740
*1023 FILLER_108_744
*1024 FILLER_108_747
*1025 FILLER_108_811
*1026 FILLER_108_815
*1027 FILLER_108_818
*1028 FILLER_108_882
*1029 FILLER_108_886
*1030 FILLER_108_889
*1031 FILLER_108_953
*1032 FILLER_108_957
*1033 FILLER_108_960
*1034 FILLER_109_1028
*1035 FILLER_109_1044
*1036 FILLER_109_137
*1037 FILLER_109_141
*1038 FILLER_109_144
*1039 FILLER_109_2
*1040 FILLER_109_208
*1041 FILLER_109_212
*1042 FILLER_109_215
*1043 FILLER_109_279
*1044 FILLER_109_283
*1045 FILLER_109_286
*1046 FILLER_109_350
*1047 FILLER_109_354
*1048 FILLER_109_357
*1049 FILLER_109_421
*1050 FILLER_109_425
*1051 FILLER_109_428
*1052 FILLER_109_492
*1053 FILLER_109_496
*1054 FILLER_109_499
*1055 FILLER_109_563
*1056 FILLER_109_567
*1057 FILLER_109_570
*1058 FILLER_109_634
*1059 FILLER_109_638
*1060 FILLER_109_641
*1061 FILLER_109_66
*1062 FILLER_109_70
*1063 FILLER_109_705
*1064 FILLER_109_709
*1065 FILLER_109_712
*1066 FILLER_109_73
*1067 FILLER_109_776
*1068 FILLER_109_780
*1069 FILLER_109_783
*1070 FILLER_109_847
*1071 FILLER_109_851
*1072 FILLER_109_854
*1073 FILLER_109_918
*1074 FILLER_109_922
*1075 FILLER_109_925
*1076 FILLER_109_989
*1077 FILLER_109_993
*1078 FILLER_109_996
*1079 FILLER_10_101
*1080 FILLER_10_1024
*1081 FILLER_10_1028
*1082 FILLER_10_1031
*1083 FILLER_10_1039
*1084 FILLER_10_1043
*1085 FILLER_10_105
*1086 FILLER_10_108
*1087 FILLER_10_172
*1088 FILLER_10_176
*1089 FILLER_10_179
*1090 FILLER_10_2
*1091 FILLER_10_243
*1092 FILLER_10_247
*1093 FILLER_10_250
*1094 FILLER_10_314
*1095 FILLER_10_318
*1096 FILLER_10_321
*1097 FILLER_10_34
*1098 FILLER_10_37
*1099 FILLER_10_385
*1100 FILLER_10_389
*1101 FILLER_10_392
*1102 FILLER_10_456
*1103 FILLER_10_460
*1104 FILLER_10_463
*1105 FILLER_10_527
*1106 FILLER_10_531
*1107 FILLER_10_534
*1108 FILLER_10_598
*1109 FILLER_10_602
*1110 FILLER_10_605
*1111 FILLER_10_669
*1112 FILLER_10_673
*1113 FILLER_10_676
*1114 FILLER_10_740
*1115 FILLER_10_744
*1116 FILLER_10_747
*1117 FILLER_10_811
*1118 FILLER_10_815
*1119 FILLER_10_818
*1120 FILLER_10_882
*1121 FILLER_10_886
*1122 FILLER_10_889
*1123 FILLER_10_953
*1124 FILLER_10_957
*1125 FILLER_10_960
*1126 FILLER_110_101
*1127 FILLER_110_1024
*1128 FILLER_110_1028
*1129 FILLER_110_1031
*1130 FILLER_110_1039
*1131 FILLER_110_1043
*1132 FILLER_110_105
*1133 FILLER_110_108
*1134 FILLER_110_172
*1135 FILLER_110_176
*1136 FILLER_110_179
*1137 FILLER_110_2
*1138 FILLER_110_243
*1139 FILLER_110_247
*1140 FILLER_110_250
*1141 FILLER_110_314
*1142 FILLER_110_318
*1143 FILLER_110_321
*1144 FILLER_110_34
*1145 FILLER_110_37
*1146 FILLER_110_385
*1147 FILLER_110_389
*1148 FILLER_110_392
*1149 FILLER_110_456
*1150 FILLER_110_460
*1151 FILLER_110_463
*1152 FILLER_110_527
*1153 FILLER_110_531
*1154 FILLER_110_534
*1155 FILLER_110_598
*1156 FILLER_110_602
*1157 FILLER_110_605
*1158 FILLER_110_669
*1159 FILLER_110_673
*1160 FILLER_110_676
*1161 FILLER_110_740
*1162 FILLER_110_744
*1163 FILLER_110_747
*1164 FILLER_110_811
*1165 FILLER_110_815
*1166 FILLER_110_818
*1167 FILLER_110_882
*1168 FILLER_110_886
*1169 FILLER_110_889
*1170 FILLER_110_953
*1171 FILLER_110_957
*1172 FILLER_110_960
*1173 FILLER_111_1028
*1174 FILLER_111_1044
*1175 FILLER_111_137
*1176 FILLER_111_141
*1177 FILLER_111_144
*1178 FILLER_111_2
*1179 FILLER_111_208
*1180 FILLER_111_212
*1181 FILLER_111_215
*1182 FILLER_111_279
*1183 FILLER_111_283
*1184 FILLER_111_286
*1185 FILLER_111_350
*1186 FILLER_111_354
*1187 FILLER_111_357
*1188 FILLER_111_421
*1189 FILLER_111_425
*1190 FILLER_111_428
*1191 FILLER_111_492
*1192 FILLER_111_496
*1193 FILLER_111_499
*1194 FILLER_111_563
*1195 FILLER_111_567
*1196 FILLER_111_570
*1197 FILLER_111_634
*1198 FILLER_111_638
*1199 FILLER_111_641
*1200 FILLER_111_66
*1201 FILLER_111_70
*1202 FILLER_111_705
*1203 FILLER_111_709
*1204 FILLER_111_712
*1205 FILLER_111_73
*1206 FILLER_111_776
*1207 FILLER_111_780
*1208 FILLER_111_783
*1209 FILLER_111_847
*1210 FILLER_111_851
*1211 FILLER_111_854
*1212 FILLER_111_918
*1213 FILLER_111_922
*1214 FILLER_111_925
*1215 FILLER_111_989
*1216 FILLER_111_993
*1217 FILLER_111_996
*1218 FILLER_112_101
*1219 FILLER_112_1024
*1220 FILLER_112_1028
*1221 FILLER_112_1031
*1222 FILLER_112_1039
*1223 FILLER_112_1043
*1224 FILLER_112_105
*1225 FILLER_112_108
*1226 FILLER_112_172
*1227 FILLER_112_176
*1228 FILLER_112_179
*1229 FILLER_112_2
*1230 FILLER_112_243
*1231 FILLER_112_247
*1232 FILLER_112_250
*1233 FILLER_112_314
*1234 FILLER_112_318
*1235 FILLER_112_321
*1236 FILLER_112_34
*1237 FILLER_112_37
*1238 FILLER_112_385
*1239 FILLER_112_389
*1240 FILLER_112_392
*1241 FILLER_112_456
*1242 FILLER_112_460
*1243 FILLER_112_463
*1244 FILLER_112_527
*1245 FILLER_112_531
*1246 FILLER_112_534
*1247 FILLER_112_598
*1248 FILLER_112_602
*1249 FILLER_112_605
*1250 FILLER_112_669
*1251 FILLER_112_673
*1252 FILLER_112_676
*1253 FILLER_112_740
*1254 FILLER_112_744
*1255 FILLER_112_747
*1256 FILLER_112_811
*1257 FILLER_112_815
*1258 FILLER_112_818
*1259 FILLER_112_882
*1260 FILLER_112_886
*1261 FILLER_112_889
*1262 FILLER_112_953
*1263 FILLER_112_957
*1264 FILLER_112_960
*1265 FILLER_113_1028
*1266 FILLER_113_1044
*1267 FILLER_113_137
*1268 FILLER_113_141
*1269 FILLER_113_144
*1270 FILLER_113_2
*1271 FILLER_113_208
*1272 FILLER_113_212
*1273 FILLER_113_215
*1274 FILLER_113_279
*1275 FILLER_113_283
*1276 FILLER_113_286
*1277 FILLER_113_350
*1278 FILLER_113_354
*1279 FILLER_113_357
*1280 FILLER_113_421
*1281 FILLER_113_425
*1282 FILLER_113_428
*1283 FILLER_113_492
*1284 FILLER_113_496
*1285 FILLER_113_499
*1286 FILLER_113_563
*1287 FILLER_113_567
*1288 FILLER_113_570
*1289 FILLER_113_634
*1290 FILLER_113_638
*1291 FILLER_113_641
*1292 FILLER_113_66
*1293 FILLER_113_70
*1294 FILLER_113_705
*1295 FILLER_113_709
*1296 FILLER_113_712
*1297 FILLER_113_73
*1298 FILLER_113_776
*1299 FILLER_113_780
*1300 FILLER_113_783
*1301 FILLER_113_847
*1302 FILLER_113_851
*1303 FILLER_113_854
*1304 FILLER_113_918
*1305 FILLER_113_922
*1306 FILLER_113_925
*1307 FILLER_113_989
*1308 FILLER_113_993
*1309 FILLER_113_996
*1310 FILLER_114_101
*1311 FILLER_114_1024
*1312 FILLER_114_1028
*1313 FILLER_114_1031
*1314 FILLER_114_1039
*1315 FILLER_114_1043
*1316 FILLER_114_105
*1317 FILLER_114_108
*1318 FILLER_114_172
*1319 FILLER_114_176
*1320 FILLER_114_179
*1321 FILLER_114_2
*1322 FILLER_114_243
*1323 FILLER_114_247
*1324 FILLER_114_250
*1325 FILLER_114_314
*1326 FILLER_114_318
*1327 FILLER_114_321
*1328 FILLER_114_34
*1329 FILLER_114_37
*1330 FILLER_114_385
*1331 FILLER_114_389
*1332 FILLER_114_392
*1333 FILLER_114_456
*1334 FILLER_114_460
*1335 FILLER_114_463
*1336 FILLER_114_527
*1337 FILLER_114_531
*1338 FILLER_114_534
*1339 FILLER_114_598
*1340 FILLER_114_602
*1341 FILLER_114_605
*1342 FILLER_114_669
*1343 FILLER_114_673
*1344 FILLER_114_676
*1345 FILLER_114_740
*1346 FILLER_114_744
*1347 FILLER_114_747
*1348 FILLER_114_811
*1349 FILLER_114_815
*1350 FILLER_114_818
*1351 FILLER_114_882
*1352 FILLER_114_886
*1353 FILLER_114_889
*1354 FILLER_114_953
*1355 FILLER_114_957
*1356 FILLER_114_960
*1357 FILLER_115_1028
*1358 FILLER_115_1044
*1359 FILLER_115_137
*1360 FILLER_115_141
*1361 FILLER_115_144
*1362 FILLER_115_2
*1363 FILLER_115_208
*1364 FILLER_115_212
*1365 FILLER_115_215
*1366 FILLER_115_279
*1367 FILLER_115_283
*1368 FILLER_115_286
*1369 FILLER_115_350
*1370 FILLER_115_354
*1371 FILLER_115_357
*1372 FILLER_115_421
*1373 FILLER_115_425
*1374 FILLER_115_428
*1375 FILLER_115_492
*1376 FILLER_115_496
*1377 FILLER_115_499
*1378 FILLER_115_563
*1379 FILLER_115_567
*1380 FILLER_115_570
*1381 FILLER_115_634
*1382 FILLER_115_638
*1383 FILLER_115_641
*1384 FILLER_115_66
*1385 FILLER_115_70
*1386 FILLER_115_705
*1387 FILLER_115_709
*1388 FILLER_115_712
*1389 FILLER_115_73
*1390 FILLER_115_776
*1391 FILLER_115_780
*1392 FILLER_115_783
*1393 FILLER_115_847
*1394 FILLER_115_851
*1395 FILLER_115_854
*1396 FILLER_115_918
*1397 FILLER_115_922
*1398 FILLER_115_925
*1399 FILLER_115_989
*1400 FILLER_115_993
*1401 FILLER_115_996
*1402 FILLER_116_101
*1403 FILLER_116_1024
*1404 FILLER_116_1028
*1405 FILLER_116_1031
*1406 FILLER_116_1039
*1407 FILLER_116_1043
*1408 FILLER_116_105
*1409 FILLER_116_108
*1410 FILLER_116_172
*1411 FILLER_116_176
*1412 FILLER_116_179
*1413 FILLER_116_2
*1414 FILLER_116_243
*1415 FILLER_116_247
*1416 FILLER_116_250
*1417 FILLER_116_314
*1418 FILLER_116_318
*1419 FILLER_116_321
*1420 FILLER_116_34
*1421 FILLER_116_37
*1422 FILLER_116_385
*1423 FILLER_116_389
*1424 FILLER_116_392
*1425 FILLER_116_456
*1426 FILLER_116_460
*1427 FILLER_116_463
*1428 FILLER_116_527
*1429 FILLER_116_531
*1430 FILLER_116_534
*1431 FILLER_116_598
*1432 FILLER_116_602
*1433 FILLER_116_605
*1434 FILLER_116_669
*1435 FILLER_116_673
*1436 FILLER_116_676
*1437 FILLER_116_740
*1438 FILLER_116_744
*1439 FILLER_116_747
*1440 FILLER_116_811
*1441 FILLER_116_815
*1442 FILLER_116_818
*1443 FILLER_116_882
*1444 FILLER_116_886
*1445 FILLER_116_889
*1446 FILLER_116_953
*1447 FILLER_116_957
*1448 FILLER_116_960
*1449 FILLER_117_1028
*1450 FILLER_117_1044
*1451 FILLER_117_137
*1452 FILLER_117_141
*1453 FILLER_117_144
*1454 FILLER_117_2
*1455 FILLER_117_208
*1456 FILLER_117_212
*1457 FILLER_117_215
*1458 FILLER_117_279
*1459 FILLER_117_283
*1460 FILLER_117_286
*1461 FILLER_117_350
*1462 FILLER_117_354
*1463 FILLER_117_357
*1464 FILLER_117_421
*1465 FILLER_117_425
*1466 FILLER_117_428
*1467 FILLER_117_492
*1468 FILLER_117_496
*1469 FILLER_117_499
*1470 FILLER_117_563
*1471 FILLER_117_567
*1472 FILLER_117_570
*1473 FILLER_117_634
*1474 FILLER_117_638
*1475 FILLER_117_641
*1476 FILLER_117_66
*1477 FILLER_117_70
*1478 FILLER_117_705
*1479 FILLER_117_709
*1480 FILLER_117_712
*1481 FILLER_117_73
*1482 FILLER_117_776
*1483 FILLER_117_780
*1484 FILLER_117_783
*1485 FILLER_117_847
*1486 FILLER_117_851
*1487 FILLER_117_854
*1488 FILLER_117_918
*1489 FILLER_117_922
*1490 FILLER_117_925
*1491 FILLER_117_989
*1492 FILLER_117_993
*1493 FILLER_117_996
*1494 FILLER_118_101
*1495 FILLER_118_1024
*1496 FILLER_118_1028
*1497 FILLER_118_1031
*1498 FILLER_118_1039
*1499 FILLER_118_1043
*1500 FILLER_118_105
*1501 FILLER_118_108
*1502 FILLER_118_172
*1503 FILLER_118_176
*1504 FILLER_118_179
*1505 FILLER_118_2
*1506 FILLER_118_243
*1507 FILLER_118_247
*1508 FILLER_118_250
*1509 FILLER_118_314
*1510 FILLER_118_318
*1511 FILLER_118_321
*1512 FILLER_118_34
*1513 FILLER_118_37
*1514 FILLER_118_385
*1515 FILLER_118_389
*1516 FILLER_118_392
*1517 FILLER_118_456
*1518 FILLER_118_460
*1519 FILLER_118_463
*1520 FILLER_118_527
*1521 FILLER_118_531
*1522 FILLER_118_534
*1523 FILLER_118_598
*1524 FILLER_118_602
*1525 FILLER_118_605
*1526 FILLER_118_669
*1527 FILLER_118_673
*1528 FILLER_118_676
*1529 FILLER_118_740
*1530 FILLER_118_744
*1531 FILLER_118_747
*1532 FILLER_118_811
*1533 FILLER_118_815
*1534 FILLER_118_818
*1535 FILLER_118_882
*1536 FILLER_118_886
*1537 FILLER_118_889
*1538 FILLER_118_953
*1539 FILLER_118_957
*1540 FILLER_118_960
*1541 FILLER_119_1028
*1542 FILLER_119_1044
*1543 FILLER_119_137
*1544 FILLER_119_141
*1545 FILLER_119_144
*1546 FILLER_119_2
*1547 FILLER_119_208
*1548 FILLER_119_212
*1549 FILLER_119_215
*1550 FILLER_119_279
*1551 FILLER_119_283
*1552 FILLER_119_286
*1553 FILLER_119_350
*1554 FILLER_119_354
*1555 FILLER_119_357
*1556 FILLER_119_421
*1557 FILLER_119_425
*1558 FILLER_119_428
*1559 FILLER_119_492
*1560 FILLER_119_496
*1561 FILLER_119_499
*1562 FILLER_119_563
*1563 FILLER_119_567
*1564 FILLER_119_570
*1565 FILLER_119_634
*1566 FILLER_119_638
*1567 FILLER_119_641
*1568 FILLER_119_66
*1569 FILLER_119_70
*1570 FILLER_119_705
*1571 FILLER_119_709
*1572 FILLER_119_712
*1573 FILLER_119_73
*1574 FILLER_119_776
*1575 FILLER_119_780
*1576 FILLER_119_783
*1577 FILLER_119_847
*1578 FILLER_119_851
*1579 FILLER_119_854
*1580 FILLER_119_918
*1581 FILLER_119_922
*1582 FILLER_119_925
*1583 FILLER_119_989
*1584 FILLER_119_993
*1585 FILLER_119_996
*1586 FILLER_11_1028
*1587 FILLER_11_1044
*1588 FILLER_11_137
*1589 FILLER_11_141