*SPEF "ieee 1481-1999"
*DESIGN "user_project_wrapper"
*DATE "11:11:11 Fri 11 11, 1111"
*VENDOR "OpenRCX"
*PROGRAM "Parallel Extraction"
*VERSION "1.0"
*DESIGN_FLOW "NAME_SCOPE LOCAL" "PIN_CAP NONE"
*DIVIDER /
*DELIMITER :
*BUS_DELIMITER []
*T_UNIT 1 NS
*C_UNIT 1 PF
*R_UNIT 1 OHM
*L_UNIT 1 HENRY

*NAME_MAP
*1 io_in[0]
*2 io_in[10]
*3 io_in[11]
*4 io_in[12]
*5 io_in[13]
*6 io_in[14]
*7 io_in[15]
*8 io_in[16]
*9 io_in[17]
*10 io_in[18]
*11 io_in[19]
*12 io_in[1]
*13 io_in[20]
*14 io_in[21]
*15 io_in[22]
*16 io_in[23]
*17 io_in[24]
*18 io_in[25]
*19 io_in[26]
*20 io_in[27]
*21 io_in[28]
*22 io_in[29]
*23 io_in[2]
*24 io_in[30]
*25 io_in[31]
*26 io_in[32]
*27 io_in[33]
*28 io_in[34]
*29 io_in[35]
*30 io_in[36]
*31 io_in[37]
*32 io_in[3]
*33 io_in[4]
*34 io_in[5]
*35 io_in[6]
*36 io_in[7]
*37 io_in[8]
*38 io_in[9]
*39 io_oeb[0]
*40 io_oeb[10]
*41 io_oeb[11]
*42 io_oeb[12]
*43 io_oeb[13]
*44 io_oeb[14]
*45 io_oeb[15]
*46 io_oeb[16]
*47 io_oeb[17]
*48 io_oeb[18]
*49 io_oeb[19]
*50 io_oeb[1]
*51 io_oeb[20]
*52 io_oeb[21]
*53 io_oeb[22]
*54 io_oeb[23]
*55 io_oeb[24]
*56 io_oeb[25]
*57 io_oeb[26]
*58 io_oeb[27]
*59 io_oeb[28]
*60 io_oeb[29]
*61 io_oeb[2]
*62 io_oeb[30]
*63 io_oeb[31]
*64 io_oeb[32]
*65 io_oeb[33]
*66 io_oeb[34]
*67 io_oeb[35]
*68 io_oeb[36]
*69 io_oeb[37]
*70 io_oeb[3]
*71 io_oeb[4]
*72 io_oeb[5]
*73 io_oeb[6]
*74 io_oeb[7]
*75 io_oeb[8]
*76 io_oeb[9]
*77 io_out[0]
*78 io_out[10]
*79 io_out[11]
*80 io_out[12]
*81 io_out[13]
*82 io_out[14]
*83 io_out[15]
*84 io_out[16]
*85 io_out[17]
*86 io_out[18]
*87 io_out[19]
*88 io_out[1]
*89 io_out[20]
*90 io_out[21]
*91 io_out[22]
*92 io_out[23]
*93 io_out[24]
*94 io_out[25]
*95 io_out[26]
*96 io_out[27]
*97 io_out[28]
*98 io_out[29]
*99 io_out[2]
*100 io_out[30]
*101 io_out[31]
*102 io_out[32]
*103 io_out[33]
*104 io_out[34]
*105 io_out[35]
*106 io_out[36]
*107 io_out[37]
*108 io_out[3]
*109 io_out[4]
*110 io_out[5]
*111 io_out[6]
*112 io_out[7]
*113 io_out[8]
*114 io_out[9]
*115 la_data_in[0]
*116 la_data_in[10]
*117 la_data_in[11]
*118 la_data_in[12]
*119 la_data_in[13]
*120 la_data_in[14]
*121 la_data_in[15]
*122 la_data_in[16]
*123 la_data_in[17]
*124 la_data_in[18]
*125 la_data_in[19]
*126 la_data_in[1]
*127 la_data_in[20]
*128 la_data_in[21]
*129 la_data_in[22]
*130 la_data_in[23]
*131 la_data_in[24]
*132 la_data_in[25]
*133 la_data_in[26]
*134 la_data_in[27]
*135 la_data_in[28]
*136 la_data_in[29]
*137 la_data_in[2]
*138 la_data_in[30]
*139 la_data_in[31]
*140 la_data_in[32]
*141 la_data_in[33]
*142 la_data_in[34]
*143 la_data_in[35]
*144 la_data_in[36]
*145 la_data_in[37]
*146 la_data_in[38]
*147 la_data_in[39]
*148 la_data_in[3]
*149 la_data_in[40]
*150 la_data_in[41]
*151 la_data_in[42]
*152 la_data_in[43]
*153 la_data_in[44]
*154 la_data_in[45]
*155 la_data_in[46]
*156 la_data_in[47]
*157 la_data_in[48]
*158 la_data_in[49]
*159 la_data_in[4]
*160 la_data_in[50]
*161 la_data_in[51]
*162 la_data_in[52]
*163 la_data_in[53]
*164 la_data_in[54]
*165 la_data_in[55]
*166 la_data_in[56]
*167 la_data_in[57]
*168 la_data_in[58]
*169 la_data_in[59]
*170 la_data_in[5]
*171 la_data_in[60]
*172 la_data_in[61]
*173 la_data_in[62]
*174 la_data_in[63]
*175 la_data_in[6]
*176 la_data_in[7]
*177 la_data_in[8]
*178 la_data_in[9]
*179 la_data_out[0]
*180 la_data_out[10]
*181 la_data_out[11]
*182 la_data_out[12]
*183 la_data_out[13]
*184 la_data_out[14]
*185 la_data_out[15]
*186 la_data_out[16]
*187 la_data_out[17]
*188 la_data_out[18]
*189 la_data_out[19]
*190 la_data_out[1]
*191 la_data_out[20]
*192 la_data_out[21]
*193 la_data_out[22]
*194 la_data_out[23]
*195 la_data_out[24]
*196 la_data_out[25]
*197 la_data_out[26]
*198 la_data_out[27]
*199 la_data_out[28]
*200 la_data_out[29]
*201 la_data_out[2]
*202 la_data_out[30]
*203 la_data_out[31]
*204 la_data_out[32]
*205 la_data_out[33]
*206 la_data_out[34]
*207 la_data_out[35]
*208 la_data_out[36]
*209 la_data_out[37]
*210 la_data_out[38]
*211 la_data_out[39]
*212 la_data_out[3]
*213 la_data_out[40]
*214 la_data_out[41]
*215 la_data_out[42]
*216 la_data_out[43]
*217 la_data_out[44]
*218 la_data_out[45]
*219 la_data_out[46]
*220 la_data_out[47]
*221 la_data_out[48]
*222 la_data_out[49]
*223 la_data_out[4]
*224 la_data_out[50]
*225 la_data_out[51]
*226 la_data_out[52]
*227 la_data_out[53]
*228 la_data_out[54]
*229 la_data_out[55]
*230 la_data_out[56]
*231 la_data_out[57]
*232 la_data_out[58]
*233 la_data_out[59]
*234 la_data_out[5]
*235 la_data_out[60]
*236 la_data_out[61]
*237 la_data_out[62]
*238 la_data_out[63]
*239 la_data_out[6]
*240 la_data_out[7]
*241 la_data_out[8]
*242 la_data_out[9]
*243 la_oenb[0]
*244 la_oenb[10]
*245 la_oenb[11]
*246 la_oenb[12]
*247 la_oenb[13]
*248 la_oenb[14]
*249 la_oenb[15]
*250 la_oenb[16]
*251 la_oenb[17]
*252 la_oenb[18]
*253 la_oenb[19]
*254 la_oenb[1]
*255 la_oenb[20]
*256 la_oenb[21]
*257 la_oenb[22]
*258 la_oenb[23]
*259 la_oenb[24]
*260 la_oenb[25]
*261 la_oenb[26]
*262 la_oenb[27]
*263 la_oenb[28]
*264 la_oenb[29]
*265 la_oenb[2]
*266 la_oenb[30]
*267 la_oenb[31]
*268 la_oenb[32]
*269 la_oenb[33]
*270 la_oenb[34]
*271 la_oenb[35]
*272 la_oenb[36]
*273 la_oenb[37]
*274 la_oenb[38]
*275 la_oenb[39]
*276 la_oenb[3]
*277 la_oenb[40]
*278 la_oenb[41]
*279 la_oenb[42]
*280 la_oenb[43]
*281 la_oenb[44]
*282 la_oenb[45]
*283 la_oenb[46]
*284 la_oenb[47]
*285 la_oenb[48]
*286 la_oenb[49]
*287 la_oenb[4]
*288 la_oenb[50]
*289 la_oenb[51]
*290 la_oenb[52]
*291 la_oenb[53]
*292 la_oenb[54]
*293 la_oenb[55]
*294 la_oenb[56]
*295 la_oenb[57]
*296 la_oenb[58]
*297 la_oenb[59]
*298 la_oenb[5]
*299 la_oenb[60]
*300 la_oenb[61]
*301 la_oenb[62]
*302 la_oenb[63]
*303 la_oenb[6]
*304 la_oenb[7]
*305 la_oenb[8]
*306 la_oenb[9]
*307 user_clock2
*308 user_irq[0]
*309 user_irq[1]
*310 user_irq[2]
*313 wb_clk_i
*314 wb_rst_i
*315 wbs_ack_o
*316 wbs_adr_i[0]
*317 wbs_adr_i[10]
*318 wbs_adr_i[11]
*319 wbs_adr_i[12]
*320 wbs_adr_i[13]
*321 wbs_adr_i[14]
*322 wbs_adr_i[15]
*323 wbs_adr_i[16]
*324 wbs_adr_i[17]
*325 wbs_adr_i[18]
*326 wbs_adr_i[19]
*327 wbs_adr_i[1]
*328 wbs_adr_i[20]
*329 wbs_adr_i[21]
*330 wbs_adr_i[22]
*331 wbs_adr_i[23]
*332 wbs_adr_i[24]
*333 wbs_adr_i[25]
*334 wbs_adr_i[26]
*335 wbs_adr_i[27]
*336 wbs_adr_i[28]
*337 wbs_adr_i[29]
*338 wbs_adr_i[2]
*339 wbs_adr_i[30]
*340 wbs_adr_i[31]
*341 wbs_adr_i[3]
*342 wbs_adr_i[4]
*343 wbs_adr_i[5]
*344 wbs_adr_i[6]
*345 wbs_adr_i[7]
*346 wbs_adr_i[8]
*347 wbs_adr_i[9]
*348 wbs_cyc_i
*349 wbs_dat_i[0]
*350 wbs_dat_i[10]
*351 wbs_dat_i[11]
*352 wbs_dat_i[12]
*353 wbs_dat_i[13]
*354 wbs_dat_i[14]
*355 wbs_dat_i[15]
*356 wbs_dat_i[16]
*357 wbs_dat_i[17]
*358 wbs_dat_i[18]
*359 wbs_dat_i[19]
*360 wbs_dat_i[1]
*361 wbs_dat_i[20]
*362 wbs_dat_i[21]
*363 wbs_dat_i[22]
*364 wbs_dat_i[23]
*365 wbs_dat_i[24]
*366 wbs_dat_i[25]
*367 wbs_dat_i[26]
*368 wbs_dat_i[27]
*369 wbs_dat_i[28]
*370 wbs_dat_i[29]
*371 wbs_dat_i[2]
*372 wbs_dat_i[30]
*373 wbs_dat_i[31]
*374 wbs_dat_i[3]
*375 wbs_dat_i[4]
*376 wbs_dat_i[5]
*377 wbs_dat_i[6]
*378 wbs_dat_i[7]
*379 wbs_dat_i[8]
*380 wbs_dat_i[9]
*381 wbs_dat_o[0]
*382 wbs_dat_o[10]
*383 wbs_dat_o[11]
*384 wbs_dat_o[12]
*385 wbs_dat_o[13]
*386 wbs_dat_o[14]
*387 wbs_dat_o[15]
*388 wbs_dat_o[16]
*389 wbs_dat_o[17]
*390 wbs_dat_o[18]
*391 wbs_dat_o[19]
*392 wbs_dat_o[1]
*393 wbs_dat_o[20]
*394 wbs_dat_o[21]
*395 wbs_dat_o[22]
*396 wbs_dat_o[23]
*397 wbs_dat_o[24]
*398 wbs_dat_o[25]
*399 wbs_dat_o[26]
*400 wbs_dat_o[27]
*401 wbs_dat_o[28]
*402 wbs_dat_o[29]
*403 wbs_dat_o[2]
*404 wbs_dat_o[30]
*405 wbs_dat_o[31]
*406 wbs_dat_o[3]
*407 wbs_dat_o[4]
*408 wbs_dat_o[5]
*409 wbs_dat_o[6]
*410 wbs_dat_o[7]
*411 wbs_dat_o[8]
*412 wbs_dat_o[9]
*413 wbs_sel_i[0]
*414 wbs_sel_i[1]
*415 wbs_sel_i[2]
*416 wbs_sel_i[3]
*417 wbs_stb_i
*418 wbs_we_i
*419 u_macro_decap64
*420 u_macro_decap8
*421 u_macro_golden
*422 u_macro_tap

*PORTS
io_in[0] I
io_in[10] I
io_in[11] I
io_in[12] I
io_in[13] I
io_in[14] I
io_in[15] I
io_in[16] I
io_in[17] I
io_in[18] I
io_in[19] I
io_in[1] I
io_in[20] I
io_in[21] I
io_in[22] I
io_in[23] I
io_in[24] I
io_in[25] I
io_in[26] I
io_in[27] I
io_in[28] I
io_in[29] I
io_in[2] I
io_in[30] I
io_in[31] I
io_in[32] I
io_in[33] I
io_in[34] I
io_in[35] I
io_in[36] I
io_in[37] I
io_in[3] I
io_in[4] I
io_in[5] I
io_in[6] I
io_in[7] I
io_in[8] I
io_in[9] I
io_oeb[0] O
io_oeb[10] O
io_oeb[11] O
io_oeb[12] O
io_oeb[13] O
io_oeb[14] O
io_oeb[15] O
io_oeb[16] O
io_oeb[17] O
io_oeb[18] O
io_oeb[19] O
io_oeb[1] O
io_oeb[20] O
io_oeb[21] O
io_oeb[22] O
io_oeb[23] O
io_oeb[24] O
io_oeb[25] O
io_oeb[26] O
io_oeb[27] O
io_oeb[28] O
io_oeb[29] O
io_oeb[2] O
io_oeb[30] O
io_oeb[31] O
io_oeb[32] O
io_oeb[33] O
io_oeb[34] O
io_oeb[35] O
io_oeb[36] O
io_oeb[37] O
io_oeb[3] O
io_oeb[4] O
io_oeb[5] O
io_oeb[6] O
io_oeb[7] O
io_oeb[8] O
io_oeb[9] O
io_out[0] O
io_out[10] O
io_out[11] O
io_out[12] O
io_out[13] O
io_out[14] O
io_out[15] O
io_out[16] O
io_out[17] O
io_out[18] O
io_out[19] O
io_out[1] O
io_out[20] O
io_out[21] O
io_out[22] O
io_out[23] O
io_out[24] O
io_out[25] O
io_out[26] O
io_out[27] O
io_out[28] O
io_out[29] O
io_out[2] O
io_out[30] O
io_out[31] O
io_out[32] O
io_out[33] O
io_out[34] O
io_out[35] O
io_out[36] O
io_out[37] O
io_out[3] O
io_out[4] O
io_out[5] O
io_out[6] O
io_out[7] O
io_out[8] O
io_out[9] O
la_data_in[0] I
la_data_in[10] I
la_data_in[11] I
la_data_in[12] I
la_data_in[13] I
la_data_in[14] I
la_data_in[15] I
la_data_in[16] I
la_data_in[17] I
la_data_in[18] I
la_data_in[19] I
la_data_in[1] I
la_data_in[20] I
la_data_in[21] I
la_data_in[22] I
la_data_in[23] I
la_data_in[24] I
la_data_in[25] I
la_data_in[26] I
la_data_in[27] I
la_data_in[28] I
la_data_in[29] I
la_data_in[2] I
la_data_in[30] I
la_data_in[31] I
la_data_in[32] I
la_data_in[33] I
la_data_in[34] I
la_data_in[35] I
la_data_in[36] I
la_data_in[37] I
la_data_in[38] I
la_data_in[39] I
la_data_in[3] I
la_data_in[40] I
la_data_in[41] I
la_data_in[42] I
la_data_in[43] I
la_data_in[44] I
la_data_in[45] I
la_data_in[46] I
la_data_in[47] I
la_data_in[48] I
la_data_in[49] I
la_data_in[4] I
la_data_in[50] I
la_data_in[51] I
la_data_in[52] I
la_data_in[53] I
la_data_in[54] I
la_data_in[55] I
la_data_in[56] I
la_data_in[57] I
la_data_in[58] I
la_data_in[59] I
la_data_in[5] I
la_data_in[60] I
la_data_in[61] I
la_data_in[62] I
la_data_in[63] I
la_data_in[6] I
la_data_in[7] I
la_data_in[8] I
la_data_in[9] I
la_data_out[0] O
la_data_out[10] O
la_data_out[11] O
la_data_out[12] O
la_data_out[13] O
la_data_out[14] O
la_data_out[15] O
la_data_out[16] O
la_data_out[17] O
la_data_out[18] O
la_data_out[19] O
la_data_out[1] O
la_data_out[20] O
la_data_out[21] O
la_data_out[22] O
la_data_out[23] O
la_data_out[24] O
la_data_out[25] O
la_data_out[26] O
la_data_out[27] O
la_data_out[28] O
la_data_out[29] O
la_data_out[2] O
la_data_out[30] O
la_data_out[31] O
la_data_out[32] O
la_data_out[33] O
la_data_out[34] O
la_data_out[35] O
la_data_out[36] O
la_data_out[37] O
la_data_out[38] O
la_data_out[39] O
la_data_out[3] O
la_data_out[40] O
la_data_out[41] O
la_data_out[42] O
la_data_out[43] O
la_data_out[44] O
la_data_out[45] O
la_data_out[46] O
la_data_out[47] O
la_data_out[48] O
la_data_out[49] O
la_data_out[4] O
la_data_out[50] O
la_data_out[51] O
la_data_out[52] O
la_data_out[53] O
la_data_out[54] O
la_data_out[55] O
la_data_out[56] O
la_data_out[57] O
la_data_out[58] O
la_data_out[59] O
la_data_out[5] O
la_data_out[60] O
la_data_out[61] O
la_data_out[62] O
la_data_out[63] O
la_data_out[6] O
la_data_out[7] O
la_data_out[8] O
la_data_out[9] O
la_oenb[0] I
la_oenb[10] I
la_oenb[11] I
la_oenb[12] I
la_oenb[13] I
la_oenb[14] I
la_oenb[15] I
la_oenb[16] I
la_oenb[17] I
la_oenb[18] I
la_oenb[19] I
la_oenb[1] I
la_oenb[20] I
la_oenb[21] I
la_oenb[22] I
la_oenb[23] I
la_oenb[24] I
la_oenb[25] I
la_oenb[26] I
la_oenb[27] I
la_oenb[28] I
la_oenb[29] I
la_oenb[2] I
la_oenb[30] I
la_oenb[31] I
la_oenb[32] I
la_oenb[33] I
la_oenb[34] I
la_oenb[35] I
la_oenb[36] I
la_oenb[37] I
la_oenb[38] I
la_oenb[39] I
la_oenb[3] I
la_oenb[40] I
la_oenb[41] I
la_oenb[42] I
la_oenb[43] I
la_oenb[44] I
la_oenb[45] I
la_oenb[46] I
la_oenb[47] I
la_oenb[48] I
la_oenb[49] I
la_oenb[4] I
la_oenb[50] I
la_oenb[51] I
la_oenb[52] I
la_oenb[53] I
la_oenb[54] I
la_oenb[55] I
la_oenb[56] I
la_oenb[57] I
la_oenb[58] I
la_oenb[59] I
la_oenb[5] I
la_oenb[60] I
la_oenb[61] I
la_oenb[62] I
la_oenb[63] I
la_oenb[6] I
la_oenb[7] I
la_oenb[8] I
la_oenb[9] I
user_clock2 I
user_irq[0] O
user_irq[1] O
user_irq[2] O
wb_clk_i I
wb_rst_i I
wbs_ack_o O
wbs_adr_i[0] I
wbs_adr_i[10] I
wbs_adr_i[11] I
wbs_adr_i[12] I
wbs_adr_i[13] I
wbs_adr_i[14] I
wbs_adr_i[15] I
wbs_adr_i[16] I
wbs_adr_i[17] I
wbs_adr_i[18] I
wbs_adr_i[19] I
wbs_adr_i[1] I
wbs_adr_i[20] I
wbs_adr_i[21] I
wbs_adr_i[22] I
wbs_adr_i[23] I
wbs_adr_i[24] I
wbs_adr_i[25] I
wbs_adr_i[26] I
wbs_adr_i[27] I
wbs_adr_i[28] I
wbs_adr_i[29] I
wbs_adr_i[2] I
wbs_adr_i[30] I
wbs_adr_i[31] I
wbs_adr_i[3] I
wbs_adr_i[4] I
wbs_adr_i[5] I
wbs_adr_i[6] I
wbs_adr_i[7] I
wbs_adr_i[8] I
wbs_adr_i[9] I
wbs_cyc_i I
wbs_dat_i[0] I
wbs_dat_i[10] I
wbs_dat_i[11] I
wbs_dat_i[12] I
wbs_dat_i[13] I
wbs_dat_i[14] I
wbs_dat_i[15] I
wbs_dat_i[16] I
wbs_dat_i[17] I
wbs_dat_i[18] I
wbs_dat_i[19] I
wbs_dat_i[1] I
wbs_dat_i[20] I
wbs_dat_i[21] I
wbs_dat_i[22] I
wbs_dat_i[23] I
wbs_dat_i[24] I
wbs_dat_i[25] I
wbs_dat_i[26] I
wbs_dat_i[27] I
wbs_dat_i[28] I
wbs_dat_i[29] I
wbs_dat_i[2] I
wbs_dat_i[30] I
wbs_dat_i[31] I
wbs_dat_i[3] I
wbs_dat_i[4] I
wbs_dat_i[5] I
wbs_dat_i[6] I
wbs_dat_i[7] I
wbs_dat_i[8] I
wbs_dat_i[9] I
wbs_dat_o[0] O
wbs_dat_o[10] O
wbs_dat_o[11] O
wbs_dat_o[12] O
wbs_dat_o[13] O
wbs_dat_o[14] O
wbs_dat_o[15] O
wbs_dat_o[16] O
wbs_dat_o[17] O
wbs_dat_o[18] O
wbs_dat_o[19] O
wbs_dat_o[1] O
wbs_dat_o[20] O
wbs_dat_o[21] O
wbs_dat_o[22] O
wbs_dat_o[23] O
wbs_dat_o[24] O
wbs_dat_o[25] O
wbs_dat_o[26] O
wbs_dat_o[27] O
wbs_dat_o[28] O
wbs_dat_o[29] O
wbs_dat_o[2] O
wbs_dat_o[30] O
wbs_dat_o[31] O
wbs_dat_o[3] O
wbs_dat_o[4] O
wbs_dat_o[5] O
wbs_dat_o[6] O
wbs_dat_o[7] O
wbs_dat_o[8] O
wbs_dat_o[9] O
wbs_sel_i[0] I
wbs_sel_i[1] I
wbs_sel_i[2] I
wbs_sel_i[3] I
wbs_stb_i I
wbs_we_i I

*D_NET *1 0.879914
*CONN
*P io_in[0] I
*I *420:io_in[0] I *D macro_decap8
*I *422:io_in[0] I *D macro_tap
*I *419:io_in[0] I *D macro_decap64
*I *421:io_in[0] I *D macro_golden
*CAP
1 io_in[0] 0.00051408
2 *420:io_in[0] 0.000248535
3 *422:io_in[0] 0.0015616
4 *419:io_in[0] 0.000812146
5 *421:io_in[0] 0.000201778
6 *1:79 0.00311973
7 *1:78 0.00426023
8 *1:56 0.00289472
9 *1:43 0.00485121
10 *1:38 0.00392998
11 *1:37 0.00565143
12 *1:32 0.0112506
13 *1:25 0.00910603
14 *1:19 0.00473269
15 *1:18 0.00577993
16 *1:11 0.101398
17 *1:10 0.0996584
18 *1:8 0.0219456
19 *1:7 0.0224597
20 *419:io_in[0] *419:io_active 8.0621e-05
21 *419:io_in[0] *419:io_in[3] 7.38098e-05
22 *419:io_in[0] *419:io_oeb[0] 2.10916e-06
23 *419:io_in[0] *82:22 0.000686168
24 *419:io_in[0] *114:39 0.000648812
25 *419:io_in[0] *115:37 0.000176924
26 *419:io_in[0] *137:50 0.000107519
27 *419:io_in[0] *137:62 7.64908e-06
28 *419:io_in[0] *255:41 0.000436909
29 *420:io_in[0] *420:io_in[1] 0.000780407
30 *420:io_in[0] *420:io_out[6] 0.000616468
31 *420:io_in[0] *19:82 0.00229232
32 *421:io_in[0] *421:io_active 5.31325e-06
33 *421:io_in[0] *77:61 0.000327384
34 *421:io_in[0] *265:73 0.000300847
35 *422:io_in[0] *77:45 0.000339149
36 *422:io_in[0] *88:11 0.000673613
37 *422:io_in[0] *260:55 0.000682313
38 *422:io_in[0] *314:61 0.000823258
39 *1:8 *77:76 0.112798
40 *1:8 *88:36 0.000267382
41 *1:11 *421:io_out[27] 0.000844571
42 *1:11 *69:44 0.00818986
43 *1:11 *70:35 0
44 *1:11 *71:38 0.00010584
45 *1:11 *97:53 0
46 *1:11 *103:61 0.00212069
47 *1:11 *105:41 0.000966151
48 *1:11 *106:81 0.00318227
49 *1:11 *107:40 0
50 *1:11 *108:44 0
51 *1:11 *109:44 0
52 *1:19 *421:io_in[9] 0.000656577
53 *1:19 *421:io_oeb[13] 0.000101926
54 *1:19 *69:46 0.0256099
55 *1:19 *71:38 0.0017602
56 *1:19 *103:67 0.00017319
57 *1:25 *421:io_oeb[1] 0.00160704
58 *1:25 *69:46 0.00263299
59 *1:25 *103:67 0.000691872
60 *1:25 *109:35 0.000674557
61 *1:25 *265:73 0.0050134
62 *1:32 *421:io_active 5.60451e-06
63 *1:32 *12:32 0.00270893
64 *1:32 *27:18 5.20752e-05
65 *1:32 *77:61 0.00028753
66 *1:32 *126:40 1.92864e-05
67 *1:32 *256:95 0
68 *1:32 *377:25 0
69 *1:32 *391:92 0.0018217
70 *1:37 *419:wbs_dat_i[6] 0.000546322
71 *1:37 *419:wbs_dat_o[7] 0.000151209
72 *1:37 *375:40 0.00196267
73 *1:37 *376:36 0.000404004
74 *1:37 *377:30 0.00252071
75 *1:37 *381:22 0
76 *1:37 *407:63 0
77 *1:37 *409:42 0.00120809
78 *1:37 *416:34 0.00023741
79 *1:38 *125:39 0.0258955
80 *1:38 *256:35 0
81 *1:38 *262:23 0.0501507
82 *1:38 *304:77 0
83 *1:38 *339:27 0.00517347
84 *1:38 *380:41 0.00396232
85 *1:43 *419:io_out[1] 0.00266467
86 *1:43 *419:io_out[3] 0.00446339
87 *1:43 *88:17 0.00359476
88 *1:43 *108:26 0.00358955
89 *1:43 *240:28 2.51806e-06
90 *1:43 *363:34 5.0018e-05
91 *1:43 *363:38 0.000129553
92 *1:56 *2:40 0.0673258
93 *1:56 *3:22 0.00172334
94 *1:56 *3:24 0.000427996
95 *1:56 *115:37 0.00208343
96 *1:56 *245:55 0.000363343
97 *1:56 *255:41 0.0112828
98 *1:56 *255:59 0.0555959
99 *1:78 *422:io_in[2] 4.55091e-05
100 *1:78 *39:74 5.46432e-05
101 *1:78 *50:10 0.00112233
102 *1:78 *112:12 0.000112738
103 *1:78 *113:77 0.000571547
104 *1:78 *148:77 0.000256269
105 *1:78 *388:103 0
106 *1:79 *4:30 0.0717396
107 *1:79 *32:51 0.000111075
108 *1:79 *38:67 0.0746623
109 *1:79 *267:79 0
*RES
1 io_in[0] *1:7 8.685 
2 *1:7 *1:8 312.03 
3 *1:8 *1:10 4.5 
4 *1:10 *1:11 787.95 
5 *1:11 *1:18 31.0187 
6 *1:18 *1:19 65.7 
7 *1:19 *1:25 26.01 
8 *1:25 *421:io_in[0] 2.385 
9 *1:25 *1:32 58.59 
10 *1:32 *1:37 33.93 
11 *1:37 *1:38 138.15 
12 *1:38 *1:43 32.13 
13 *1:43 *419:io_in[0] 16.965 
14 *1:43 *1:56 184.05 
15 *1:56 *422:io_in[0] 22.14 
16 *422:io_in[0] *1:78 18.675 
17 *1:78 *1:79 189.27 
18 *1:79 *420:io_in[0] 15.21 
*END

*D_NET *2 0.679848
*CONN
*P io_in[10] I
*I *420:io_in[10] I *D macro_decap8
*I *419:io_in[10] I *D macro_decap64
*I *421:io_in[10] I *D macro_golden
*I *422:io_in[10] I *D macro_tap
*CAP
1 io_in[10] 0.00051408
2 *420:io_in[10] 0
3 *419:io_in[10] 0.00145066
4 *421:io_in[10] 0.00183802
5 *422:io_in[10] 0.000196231
6 *2:81 0.00341162
7 *2:73 0.00668148
8 *2:63 0.00545861
9 *2:51 0.00345908
10 *2:46 0.00760335
11 *2:45 0.00623341
12 *2:42 0.00425907
13 *2:40 0.00275985
14 *2:39 0.00303426
15 *2:33 0.00659353
16 *2:13 0.00324549
17 *2:11 0.100868
18 *2:10 0.100868
19 *2:8 0.00772652
20 *2:7 0.0082406
21 *419:io_in[10] *419:io_oeb[10] 0
22 *419:io_in[10] *419:io_out[9] 0.000294505
23 *419:io_in[10] *393:15 8.35701e-05
24 *421:io_in[10] *421:io_oeb[10] 0.00289659
25 *421:io_in[10] *421:io_out[9] 0.000327882
26 *422:io_in[10] *40:5 2.44343e-05
27 *422:io_in[10] *114:8 2.7253e-05
28 *2:11 *422:io_in[28] 9.48907e-05
29 *2:11 *422:io_in[36] 0.00290482
30 *2:11 *21:11 0.0101333
31 *2:11 *22:51 0.0078449
32 *2:11 *30:48 0.000542393
33 *2:11 *48:18 0
34 *2:11 *66:16 0.00104131
35 *2:11 *92:8 0.0202654
36 *2:11 *101:32 0
37 *2:11 *281:58 0.00304833
38 *2:33 *39:74 0.00074783
39 *2:33 *40:5 4.80435e-05
40 *2:33 *40:45 0.000352446
41 *2:33 *71:10 0.00584239
42 *2:33 *79:15 0.00374817
43 *2:33 *79:18 0.00162905
44 *2:33 *108:14 0
45 *2:33 *114:8 6.93946e-05
46 *2:33 *148:77 0
47 *2:33 *304:138 0
48 *2:33 *304:139 0
49 *2:39 *7:39 0.00142755
50 *2:39 *12:67 0.000580313
51 *2:39 *113:77 2.31483e-05
52 *2:39 *388:103 0.000285935
53 *2:40 *5:31 0.0245423
54 *2:40 *115:37 0.0164884
55 *2:40 *245:55 0.000778811
56 *2:45 *6:75 0
57 *2:45 *416:40 0.00063518
58 *2:46 *4:57 0.028076
59 *2:46 *5:37 0.0295116
60 *2:46 *23:28 0.000542717
61 *2:46 *23:40 0.0061346
62 *2:46 *47:27 0.00496217
63 *2:46 *50:11 0.00747386
64 *2:46 *115:31 0.000611863
65 *2:46 *176:25 0.00822878
66 *2:46 *328:47 0.00377572
67 *2:51 *23:11 0.0015545
68 *2:51 *23:21 8.67004e-05
69 *2:51 *37:37 0.0111811
70 *2:51 *262:68 0.00226543
71 *2:51 *268:161 0.00109396
72 *2:51 *339:76 0.00108697
73 *2:51 *386:85 0
74 *2:63 *6:75 0
75 *2:63 *75:51 0.00153345
76 *2:63 *114:51 0.000595895
77 *2:63 *362:66 0.000431018
78 *2:63 *393:15 0.000467807
79 *2:63 *397:14 0.000918745
80 *2:63 *409:14 0.000685373
81 *2:63 *416:40 0.00593318
82 *2:73 *5:29 0.0307621
83 *2:73 *7:39 0.0049624
84 *2:73 *12:67 0.000259868
85 *2:73 *41:20 0.000624581
86 *2:73 *41:63 0.0709279
87 *2:81 *420:io_in[4] 0.00552512
88 *2:81 *420:io_in[7] 0.000932451
89 *2:81 *420:io_oeb[4] 0.000205612
90 *1:56 *2:40 0.0673258
*RES
1 io_in[10] *2:7 8.685 
2 *2:7 *2:8 59.31 
3 *2:8 *2:10 4.5 
4 *2:10 *2:11 852.93 
5 *2:11 *2:13 4.5 
6 *2:13 *422:io_in[10] 1.305 
7 *2:13 *2:33 48.06 
8 *2:33 *2:39 13.68 
9 *2:39 *2:40 175.95 
10 *2:40 *2:42 4.5 
11 *2:42 *2:45 6.39 
12 *2:45 *2:46 193.77 
13 *2:46 *2:51 44.91 
14 *2:51 *421:io_in[10] 18.585 
15 *2:42 *2:63 48.42 
16 *2:63 *419:io_in[10] 10.305 
17 *2:33 *2:73 183.51 
18 *2:73 *2:81 49.32 
19 *2:81 *420:io_in[10] 4.5 
*END

*D_NET *3 0.749367
*CONN
*P io_in[11] I
*I *422:io_in[11] I *D macro_tap
*I *420:io_in[11] I *D macro_decap8
*I *419:io_in[11] I *D macro_decap64
*I *421:io_in[11] I *D macro_golden
*CAP
1 io_in[11] 0.00256747
2 *422:io_in[11] 0.00341713
3 *420:io_in[11] 0.000744403
4 *419:io_in[11] 0.00168058
5 *421:io_in[11] 0.00111484
6 *3:67 0.00162541
7 *3:66 0.000881008
8 *3:64 0.00717803
9 *3:63 0.00902754
10 *3:49 0.0044375
11 *3:37 0.00230394
12 *3:32 0.00442725
13 *3:30 0.0062647
14 *3:24 0.00318573
15 *3:22 0.00486472
16 *3:15 0.00486541
17 *3:11 0.107123
18 *3:10 0.105206
19 *419:io_in[11] *419:io_oeb[10] 0
20 *419:io_in[11] *419:io_oeb[11] 0.000734352
21 *419:io_in[11] *422:wbs_dat_i[22] 0.000299353
22 *419:io_in[11] *393:15 0
23 *420:io_in[11] *420:io_oeb[11] 6.69369e-05
24 *420:io_in[11] *420:io_out[11] 0
25 *421:io_in[11] *421:io_oeb[11] 0.00691025
26 *421:io_in[11] *421:io_out[10] 0.000418888
27 *421:io_in[11] *333:55 0.00635137
28 *422:io_in[11] *420:wbs_dat_i[23] 0.000213318
29 *422:io_in[11] *40:5 0
30 *422:io_in[11] *40:45 0
31 *422:io_in[11] *41:7 0
32 *422:io_in[11] *78:31 9.28806e-05
33 *3:10 io_out[11] 0.0037734
34 *3:11 *9:76 0.00770518
35 *3:11 *11:24 0.0238041
36 *3:11 *11:41 0.00016143
37 *3:11 *14:77 0.0027512
38 *3:11 *46:16 0.00118253
39 *3:11 *98:12 0.000419217
40 *3:11 *98:18 0.000301376
41 *3:11 *107:77 0
42 *3:11 *190:91 0.000354443
43 *3:11 *193:82 0
44 *3:11 *232:76 0.00211717
45 *3:11 *277:87 0.0006849
46 *3:11 *296:91 0
47 *3:11 *402:88 0
48 *3:15 *422:io_in[5] 0.00695526
49 *3:15 *9:76 0.0143205
50 *3:15 *46:16 0.0012606
51 *3:15 *378:61 1.24348e-05
52 *3:22 *12:68 0.00301239
53 *3:22 *39:75 0.000898092
54 *3:22 *43:23 0.0038989
55 *3:22 *61:69 0.00341249
56 *3:22 *245:55 0.00294042
57 *3:22 *326:61 0.000219646
58 *3:24 *43:23 0.0650773
59 *3:24 *115:43 0.00365754
60 *3:24 *255:41 0.00343502
61 *3:24 *255:59 0.0255666
62 *3:24 *395:121 0.000310994
63 *3:30 *12:50 0.000598906
64 *3:30 *115:37 8.32289e-05
65 *3:30 *303:90 0.000234296
66 *3:30 *369:55 5.93331e-05
67 *3:30 *385:16 0.000457877
68 *3:32 *12:38 0.0558062
69 *3:32 *12:50 0.00495959
70 *3:32 *43:29 0.0624665
71 *3:32 *115:37 0.000390763
72 *3:32 *328:23 0.00294993
73 *3:32 *337:33 0.00455214
74 *3:37 *40:67 0.0032404
75 *3:37 *73:38 0.00742069
76 *3:37 *109:28 0.00544836
77 *3:37 *363:80 0.00232836
78 *3:37 *367:77 0.000203077
79 *3:49 *81:46 0.00109524
80 *3:49 *109:67 0.00591492
81 *3:49 *112:61 0.00170797
82 *3:49 *113:51 9.73332e-05
83 *3:49 *114:52 0.000177393
84 *3:49 *246:36 0.000109968
85 *3:49 *356:79 0.00143204
86 *3:63 *8:43 0.000299737
87 *3:63 *12:68 0.00191545
88 *3:63 *45:59 0.000116592
89 *3:63 *61:69 0.00194397
90 *3:63 *201:84 0
91 *3:63 *267:80 0
92 *3:63 *407:76 0.000617327
93 *3:64 *37:66 0.00926516
94 *3:64 *73:77 0.0632005
95 *3:64 *80:71 0.0041054
96 *3:64 *315:13 1.27695e-05
97 *3:64 *376:57 0.00798556
98 *3:67 *420:io_out[0] 0.000255849
99 *3:67 *79:61 0.00303783
100 *3:67 *81:61 0.0167507
101 *3:67 *110:65 0.0117387
102 *1:56 *3:22 0.00172334
103 *1:56 *3:24 0.000427996
*RES
1 io_in[11] *3:10 33.795 
2 *3:10 *3:11 846.27 
3 *3:11 *3:15 41.31 
4 *3:15 *3:22 36.09 
5 *3:22 *3:24 165.24 
6 *3:24 *3:30 12.42 
7 *3:30 *3:32 182.25 
8 *3:32 *3:37 44.91 
9 *3:37 *421:io_in[11] 24.435 
10 *3:30 *3:49 44.73 
11 *3:49 *419:io_in[11] 13.815 
12 *3:15 *3:63 24.3 
13 *3:63 *3:64 170.73 
14 *3:64 *3:66 4.5 
15 *3:66 *3:67 47.43 
16 *3:67 *420:io_in[11] 9.585 
17 *3:11 *422:io_in[11] 27.495 
*END

*D_NET *4 0.79053
*CONN
*P io_in[12] I
*I *422:io_in[12] I *D macro_tap
*I *419:io_in[12] I *D macro_decap64
*I *421:io_in[12] I *D macro_golden
*I *420:io_in[12] I *D macro_decap8
*CAP
1 io_in[12] 0.000470965
2 *422:io_in[12] 0.00155839
3 *419:io_in[12] 0.00303315
4 *421:io_in[12] 0.00377319
5 *420:io_in[12] 0.000980932
6 *4:78 0.00681377
7 *4:60 0.00568963
8 *4:57 0.0269738
9 *4:55 0.0292282
10 *4:49 0.0288768
11 *4:48 0.0284865
12 *4:33 0.0022998
13 *4:30 0.00419008
14 *4:29 0.00298593
15 *4:25 0.000399792
16 *4:22 0.00159351
17 *4:17 0.00296883
18 *4:11 0.103501
19 *4:10 0.103399
20 *4:8 0.00380309
21 *4:7 0.00427405
22 *419:io_in[12] *419:io_oeb[11] 0.00299778
23 *419:io_in[12] *419:io_oeb[12] 0.00129091
24 *419:io_in[12] *419:io_out[11] 7.16119e-05
25 *419:io_in[12] *419:io_out[12] 0
26 *419:io_in[12] *422:wbs_dat_i[22] 0
27 *419:io_in[12] *422:wbs_dat_i[23] 1.53902e-05
28 *419:io_in[12] *79:43 6.23462e-05
29 *419:io_in[12] *258:96 0
30 *420:io_in[12] *420:io_oeb[12] 5.75062e-05
31 *420:io_in[12] *420:io_out[11] 0.00150504
32 *421:io_in[12] *421:io_oeb[11] 0
33 *421:io_in[12] *421:io_oeb[12] 0.000112809
34 *421:io_in[12] *421:io_out[11] 0.000685648
35 *421:io_in[12] *42:39 0.0015806
36 *421:io_in[12] *368:91 0.000221785
37 *422:io_in[12] *42:13 0.000261209
38 *422:io_in[12] *43:13 0
39 *422:io_in[12] *79:7 0.00014077
40 *4:8 *80:19 0.0228105
41 *4:11 *18:76 0.00165518
42 *4:11 *41:75 0
43 *4:11 *56:46 0.000139742
44 *4:11 *56:63 0.000778291
45 *4:11 *64:8 0.00139801
46 *4:11 *64:25 0.00132911
47 *4:11 *68:14 0.0134501
48 *4:11 *68:66 0.000927539
49 *4:11 *79:76 0
50 *4:11 *82:8 0.00308376
51 *4:11 *100:10 0.00330951
52 *4:11 *197:96 0.00255821
53 *4:11 *254:84 0.000451001
54 *4:17 *42:13 0.000150744
55 *4:17 *57:80 0
56 *4:17 *82:8 0.000354223
57 *4:22 *37:53 0.011395
58 *4:22 *40:87 0.000150744
59 *4:22 *57:80 0
60 *4:22 *82:8 0.0165234
61 *4:22 *325:63 0.000158804
62 *4:25 *82:8 0.000579147
63 *4:25 *254:84 2.40987e-05
64 *4:29 *82:8 0.000405055
65 *4:29 *254:84 4.88663e-05
66 *4:30 *7:33 0.0716867
67 *4:30 *38:67 0.00132692
68 *4:30 *42:74 2.65679e-05
69 *4:30 *81:14 0.000303538
70 *4:30 *81:58 0.000292094
71 *4:30 *84:51 0.00536687
72 *4:30 *267:79 5.90597e-05
73 *4:33 *38:72 0.0136242
74 *4:33 *45:64 0.00166785
75 *4:33 *80:74 0
76 *4:33 *112:24 0.0120718
77 *4:49 *6:48 0.0711682
78 *4:55 *23:40 0.000148809
79 *4:55 *370:40 5.63087e-05
80 *4:55 *386:14 2.1163e-05
81 *4:57 *23:28 0.000550986
82 *4:57 *23:40 0.00751688
83 *4:57 *78:38 0.00496814
84 *4:57 *176:25 0.00413661
85 *4:60 *5:40 0.0154945
86 *4:60 *74:27 0.00953666
87 *4:60 *262:69 0
88 *4:60 *362:89 7.79761e-05
89 *4:78 *370:40 0.0146283
90 *4:78 *386:14 0
91 *1:79 *4:30 0.0717396
92 *2:46 *4:57 0.028076
*RES
1 io_in[12] *4:7 8.325 
2 *4:7 *4:8 58.05 
3 *4:8 *4:10 4.5 
4 *4:10 *4:11 845.91 
5 *4:11 *4:17 10.44 
6 *4:17 *4:22 47.34 
7 *4:22 *4:25 6.39 
8 *4:25 *4:29 5.67 
9 *4:29 *4:30 189.63 
10 *4:30 *4:33 48.51 
11 *4:33 *420:io_in[12] 13.815 
12 *4:25 *4:48 4.5 
13 *4:48 *4:49 180.45 
14 *4:49 *4:55 10.98 
15 *4:55 *4:57 186.93 
16 *4:57 *4:60 45.99 
17 *4:60 *421:io_in[12] 35.415 
18 *4:55 *4:78 48.87 
19 *4:78 *419:io_in[12] 35.325 
20 *4:17 *422:io_in[12] 16.065 
*END

*D_NET *5 0.77922
*CONN
*P io_in[13] I
*I *422:io_in[13] I *D macro_tap
*I *419:io_in[13] I *D macro_decap64
*I *421:io_in[13] I *D macro_golden
*I *420:io_in[13] I *D macro_decap8
*CAP
1 io_in[13] 0.00051408
2 *422:io_in[13] 0.00158904
3 *419:io_in[13] 0.00196285
4 *421:io_in[13] 0.00282876
5 *420:io_in[13] 0.000838076
6 *5:88 0.00301929
7 *5:82 0.00158183
8 *5:59 0.00313047
9 *5:40 0.00383059
10 *5:37 0.0051135
11 *5:36 0.00421378
12 *5:33 0.00126972
13 *5:31 0.00318221
14 *5:29 0.00684481
15 *5:28 0.004663
16 *5:25 0.00199005
17 *5:11 0.104633
18 *5:10 0.104633
19 *5:8 0.00543079
20 *5:7 0.00594487
21 *419:io_in[13] *419:io_oeb[12] 0.00057457
22 *419:io_in[13] *419:io_oeb[13] 0
23 *419:io_in[13] *419:io_out[12] 0.00728472
24 *419:io_in[13] *422:wbs_dat_i[28] 4.16602e-05
25 *421:io_in[13] *421:io_oeb[12] 0.000381273
26 *421:io_in[13] *421:io_oeb[13] 0
27 *421:io_in[13] *80:44 0.00884391
28 *421:io_in[13] *99:32 0.000112288
29 *421:io_in[13] *245:80 0.00023064
30 *421:io_in[13] *254:29 0
31 *422:io_in[13] *42:13 2.46609e-05
32 *422:io_in[13] *43:13 0
33 *422:io_in[13] *79:75 0.000241361
34 *422:io_in[13] *80:13 0.00142047
35 *422:io_in[13] *80:30 0.00306029
36 *5:8 io_out[13] 0.0144023
37 *5:11 *420:io_in[27] 0.0057378
38 *5:11 *420:io_oeb[26] 0.000204088
39 *5:11 *420:io_oeb[30] 0.00185051
40 *5:11 *420:io_oeb[33] 0.00649713
41 *5:11 *420:io_oeb[35] 0.00212992
42 *5:11 *420:io_out[20] 0.000341361
43 *5:11 *19:82 0.00527095
44 *5:25 *420:io_oeb[11] 0.00987072
45 *5:25 *420:io_oeb[13] 5.50796e-05
46 *5:25 *420:io_out[12] 6.5382e-05
47 *5:25 *18:11 0.000652373
48 *5:25 *43:77 8.42657e-06
49 *5:25 *94:56 0.012015
50 *5:28 *420:io_out[0] 0
51 *5:28 *18:11 0.00485936
52 *5:28 *81:61 0
53 *5:29 *7:39 0.00112033
54 *5:29 *39:75 0.0693605
55 *5:29 *41:63 0.000618629
56 *5:29 *61:69 0.000608267
57 *5:31 *7:39 0.0740447
58 *5:31 *39:75 0.00398372
59 *5:31 *115:37 0.0160615
60 *5:31 *245:55 0.000512675
61 *5:31 *324:50 0.00480866
62 *5:31 *324:60 0.000228591
63 *5:31 *326:61 0.00315049
64 *5:36 *38:25 0.000628795
65 *5:36 *201:16 0.000637549
66 *5:37 *7:45 0.0685057
67 *5:37 *43:23 0.000522821
68 *5:37 *50:11 0.00791174
69 *5:37 *115:31 0.000475826
70 *5:37 *314:43 0.00377572
71 *5:40 *362:89 0.0136386
72 *5:40 *368:83 0.000885696
73 *5:40 *372:75 0.000265009
74 *5:59 *38:25 0.0118822
75 *5:59 *201:16 0.01622
76 *5:59 *242:12 0
77 *5:82 *41:63 0.000171673
78 *5:82 *42:21 3.06566e-05
79 *5:82 *42:24 1.08459e-05
80 *5:82 *111:20 2.39103e-06
81 *5:82 *314:61 6.7834e-05
82 *5:82 *391:36 0.000147005
83 *5:82 *416:62 0.000102141
84 *5:88 *42:21 0.0149453
85 *5:88 *42:90 0.00101288
86 *5:88 *42:92 8.56716e-05
87 *5:88 *80:30 1.59607e-05