*SPEF "ieee 1481-1999"
*DESIGN "user_project_wrapper"
*DATE "11:11:11 Fri 11 11, 1111"
*VENDOR "OpenRCX"
*PROGRAM "Parallel Extraction"
*VERSION "1.0"
*DESIGN_FLOW "NAME_SCOPE LOCAL" "PIN_CAP NONE"
*DIVIDER /
*DELIMITER :
*BUS_DELIMITER []
*T_UNIT 1 NS
*C_UNIT 1 PF
*R_UNIT 1 OHM
*L_UNIT 1 HENRY

*NAME_MAP
*1 io_in[0]
*2 io_in[10]
*3 io_in[11]
*4 io_in[12]
*5 io_in[13]
*6 io_in[14]
*7 io_in[15]
*8 io_in[16]
*9 io_in[17]
*10 io_in[18]
*11 io_in[19]
*12 io_in[1]
*13 io_in[20]
*14 io_in[21]
*15 io_in[22]
*16 io_in[23]
*17 io_in[24]
*18 io_in[25]
*19 io_in[26]
*20 io_in[27]
*21 io_in[28]
*22 io_in[29]
*23 io_in[2]
*24 io_in[30]
*25 io_in[31]
*26 io_in[32]
*27 io_in[33]
*28 io_in[34]
*29 io_in[35]
*30 io_in[36]
*31 io_in[37]
*32 io_in[3]
*33 io_in[4]
*34 io_in[5]
*35 io_in[6]
*36 io_in[7]
*37 io_in[8]
*38 io_in[9]
*39 io_oeb[0]
*40 io_oeb[10]
*41 io_oeb[11]
*42 io_oeb[12]
*43 io_oeb[13]
*44 io_oeb[14]
*45 io_oeb[15]
*46 io_oeb[16]
*47 io_oeb[17]
*48 io_oeb[18]
*49 io_oeb[19]
*50 io_oeb[1]
*51 io_oeb[20]
*52 io_oeb[21]
*53 io_oeb[22]
*54 io_oeb[23]
*55 io_oeb[24]
*56 io_oeb[25]
*57 io_oeb[26]
*58 io_oeb[27]
*59 io_oeb[28]
*60 io_oeb[29]
*61 io_oeb[2]
*62 io_oeb[30]
*63 io_oeb[31]
*64 io_oeb[32]
*65 io_oeb[33]
*66 io_oeb[34]
*67 io_oeb[35]
*68 io_oeb[36]
*69 io_oeb[37]
*70 io_oeb[3]
*71 io_oeb[4]
*72 io_oeb[5]
*73 io_oeb[6]
*74 io_oeb[7]
*75 io_oeb[8]
*76 io_oeb[9]
*77 io_out[0]
*78 io_out[10]
*79 io_out[11]
*80 io_out[12]
*81 io_out[13]
*82 io_out[14]
*83 io_out[15]
*84 io_out[16]
*85 io_out[17]
*86 io_out[18]
*87 io_out[19]
*88 io_out[1]
*89 io_out[20]
*90 io_out[21]
*91 io_out[22]
*92 io_out[23]
*93 io_out[24]
*94 io_out[25]
*95 io_out[26]
*96 io_out[27]
*97 io_out[28]
*98 io_out[29]
*99 io_out[2]
*100 io_out[30]
*101 io_out[31]
*102 io_out[32]
*103 io_out[33]
*104 io_out[34]
*105 io_out[35]
*106 io_out[36]
*107 io_out[37]
*108 io_out[3]
*109 io_out[4]
*110 io_out[5]
*111 io_out[6]
*112 io_out[7]
*113 io_out[8]
*114 io_out[9]
*115 la_data_in[0]
*116 la_data_in[10]
*117 la_data_in[11]
*118 la_data_in[12]
*119 la_data_in[13]
*120 la_data_in[14]
*121 la_data_in[15]
*122 la_data_in[16]
*123 la_data_in[17]
*124 la_data_in[18]
*125 la_data_in[19]
*126 la_data_in[1]
*127 la_data_in[20]
*128 la_data_in[21]
*129 la_data_in[22]
*130 la_data_in[23]
*131 la_data_in[24]
*132 la_data_in[25]
*133 la_data_in[26]
*134 la_data_in[27]
*135 la_data_in[28]
*136 la_data_in[29]
*137 la_data_in[2]
*138 la_data_in[30]
*139 la_data_in[31]
*140 la_data_in[32]
*141 la_data_in[33]
*142 la_data_in[34]
*143 la_data_in[35]
*144 la_data_in[36]
*145 la_data_in[37]
*146 la_data_in[38]
*147 la_data_in[39]
*148 la_data_in[3]
*149 la_data_in[40]
*150 la_data_in[41]
*151 la_data_in[42]
*152 la_data_in[43]
*153 la_data_in[44]
*154 la_data_in[45]
*155 la_data_in[46]
*156 la_data_in[47]
*157 la_data_in[48]
*158 la_data_in[49]
*159 la_data_in[4]
*160 la_data_in[50]
*161 la_data_in[51]
*162 la_data_in[52]
*163 la_data_in[53]
*164 la_data_in[54]
*165 la_data_in[55]
*166 la_data_in[56]
*167 la_data_in[57]
*168 la_data_in[58]
*169 la_data_in[59]
*170 la_data_in[5]
*171 la_data_in[60]
*172 la_data_in[61]
*173 la_data_in[62]
*174 la_data_in[63]
*175 la_data_in[6]
*176 la_data_in[7]
*177 la_data_in[8]
*178 la_data_in[9]
*179 la_data_out[0]
*180 la_data_out[10]
*181 la_data_out[11]
*182 la_data_out[12]
*183 la_data_out[13]
*184 la_data_out[14]
*185 la_data_out[15]
*186 la_data_out[16]
*187 la_data_out[17]
*188 la_data_out[18]
*189 la_data_out[19]
*190 la_data_out[1]
*191 la_data_out[20]
*192 la_data_out[21]
*193 la_data_out[22]
*194 la_data_out[23]
*195 la_data_out[24]
*196 la_data_out[25]
*197 la_data_out[26]
*198 la_data_out[27]
*199 la_data_out[28]
*200 la_data_out[29]
*201 la_data_out[2]
*202 la_data_out[30]
*203 la_data_out[31]
*204 la_data_out[32]
*205 la_data_out[33]
*206 la_data_out[34]
*207 la_data_out[35]
*208 la_data_out[36]
*209 la_data_out[37]
*210 la_data_out[38]
*211 la_data_out[39]
*212 la_data_out[3]
*213 la_data_out[40]
*214 la_data_out[41]
*215 la_data_out[42]
*216 la_data_out[43]
*217 la_data_out[44]
*218 la_data_out[45]
*219 la_data_out[46]
*220 la_data_out[47]
*221 la_data_out[48]
*222 la_data_out[49]
*223 la_data_out[4]
*224 la_data_out[50]
*225 la_data_out[51]
*226 la_data_out[52]
*227 la_data_out[53]
*228 la_data_out[54]
*229 la_data_out[55]
*230 la_data_out[56]
*231 la_data_out[57]
*232 la_data_out[58]
*233 la_data_out[59]
*234 la_data_out[5]
*235 la_data_out[60]
*236 la_data_out[61]
*237 la_data_out[62]
*238 la_data_out[63]
*239 la_data_out[6]
*240 la_data_out[7]
*241 la_data_out[8]
*242 la_data_out[9]
*243 la_oenb[0]
*244 la_oenb[10]
*245 la_oenb[11]
*246 la_oenb[12]
*247 la_oenb[13]
*248 la_oenb[14]
*249 la_oenb[15]
*250 la_oenb[16]
*251 la_oenb[17]
*252 la_oenb[18]
*253 la_oenb[19]
*254 la_oenb[1]
*255 la_oenb[20]
*256 la_oenb[21]
*257 la_oenb[22]
*258 la_oenb[23]
*259 la_oenb[24]
*260 la_oenb[25]
*261 la_oenb[26]
*262 la_oenb[27]
*263 la_oenb[28]
*264 la_oenb[29]
*265 la_oenb[2]
*266 la_oenb[30]
*267 la_oenb[31]
*268 la_oenb[32]
*269 la_oenb[33]
*270 la_oenb[34]
*271 la_oenb[35]
*272 la_oenb[36]
*273 la_oenb[37]
*274 la_oenb[38]
*275 la_oenb[39]
*276 la_oenb[3]
*277 la_oenb[40]
*278 la_oenb[41]
*279 la_oenb[42]
*280 la_oenb[43]
*281 la_oenb[44]
*282 la_oenb[45]
*283 la_oenb[46]
*284 la_oenb[47]
*285 la_oenb[48]
*286 la_oenb[49]
*287 la_oenb[4]
*288 la_oenb[50]
*289 la_oenb[51]
*290 la_oenb[52]
*291 la_oenb[53]
*292 la_oenb[54]
*293 la_oenb[55]
*294 la_oenb[56]
*295 la_oenb[57]
*296 la_oenb[58]
*297 la_oenb[59]
*298 la_oenb[5]
*299 la_oenb[60]
*300 la_oenb[61]
*301 la_oenb[62]
*302 la_oenb[63]
*303 la_oenb[6]
*304 la_oenb[7]
*305 la_oenb[8]
*306 la_oenb[9]
*307 user_clock2
*308 user_irq[0]
*309 user_irq[1]
*310 user_irq[2]
*313 wb_clk_i
*314 wb_rst_i
*315 wbs_ack_o
*316 wbs_adr_i[0]
*317 wbs_adr_i[10]
*318 wbs_adr_i[11]
*319 wbs_adr_i[12]
*320 wbs_adr_i[13]
*321 wbs_adr_i[14]
*322 wbs_adr_i[15]
*323 wbs_adr_i[16]
*324 wbs_adr_i[17]
*325 wbs_adr_i[18]
*326 wbs_adr_i[19]
*327 wbs_adr_i[1]
*328 wbs_adr_i[20]
*329 wbs_adr_i[21]
*330 wbs_adr_i[22]
*331 wbs_adr_i[23]
*332 wbs_adr_i[24]
*333 wbs_adr_i[25]
*334 wbs_adr_i[26]
*335 wbs_adr_i[27]
*336 wbs_adr_i[28]
*337 wbs_adr_i[29]
*338 wbs_adr_i[2]
*339 wbs_adr_i[30]
*340 wbs_adr_i[31]
*341 wbs_adr_i[3]
*342 wbs_adr_i[4]
*343 wbs_adr_i[5]
*344 wbs_adr_i[6]
*345 wbs_adr_i[7]
*346 wbs_adr_i[8]
*347 wbs_adr_i[9]
*348 wbs_cyc_i
*349 wbs_dat_i[0]
*350 wbs_dat_i[10]
*351 wbs_dat_i[11]
*352 wbs_dat_i[12]
*353 wbs_dat_i[13]
*354 wbs_dat_i[14]
*355 wbs_dat_i[15]
*356 wbs_dat_i[16]
*357 wbs_dat_i[17]
*358 wbs_dat_i[18]
*359 wbs_dat_i[19]
*360 wbs_dat_i[1]
*361 wbs_dat_i[20]
*362 wbs_dat_i[21]
*363 wbs_dat_i[22]
*364 wbs_dat_i[23]
*365 wbs_dat_i[24]
*366 wbs_dat_i[25]
*367 wbs_dat_i[26]
*368 wbs_dat_i[27]
*369 wbs_dat_i[28]
*370 wbs_dat_i[29]
*371 wbs_dat_i[2]
*372 wbs_dat_i[30]
*373 wbs_dat_i[31]
*374 wbs_dat_i[3]
*375 wbs_dat_i[4]
*376 wbs_dat_i[5]
*377 wbs_dat_i[6]
*378 wbs_dat_i[7]
*379 wbs_dat_i[8]
*380 wbs_dat_i[9]
*381 wbs_dat_o[0]
*382 wbs_dat_o[10]
*383 wbs_dat_o[11]
*384 wbs_dat_o[12]
*385 wbs_dat_o[13]
*386 wbs_dat_o[14]
*387 wbs_dat_o[15]
*388 wbs_dat_o[16]
*389 wbs_dat_o[17]
*390 wbs_dat_o[18]
*391 wbs_dat_o[19]
*392 wbs_dat_o[1]
*393 wbs_dat_o[20]
*394 wbs_dat_o[21]
*395 wbs_dat_o[22]
*396 wbs_dat_o[23]
*397 wbs_dat_o[24]
*398 wbs_dat_o[25]
*399 wbs_dat_o[26]
*400 wbs_dat_o[27]
*401 wbs_dat_o[28]
*402 wbs_dat_o[29]
*403 wbs_dat_o[2]
*404 wbs_dat_o[30]
*405 wbs_dat_o[31]
*406 wbs_dat_o[3]
*407 wbs_dat_o[4]
*408 wbs_dat_o[5]
*409 wbs_dat_o[6]
*410 wbs_dat_o[7]
*411 wbs_dat_o[8]
*412 wbs_dat_o[9]
*413 wbs_sel_i[0]
*414 wbs_sel_i[1]
*415 wbs_sel_i[2]
*416 wbs_sel_i[3]
*417 wbs_stb_i
*418 wbs_we_i
*419 u_macro_decap64
*420 u_macro_golden
*421 u_macro_tap

*PORTS
io_in[0] I
io_in[10] I
io_in[11] I
io_in[12] I
io_in[13] I
io_in[14] I
io_in[15] I
io_in[16] I
io_in[17] I
io_in[18] I
io_in[19] I
io_in[1] I
io_in[20] I
io_in[21] I
io_in[22] I
io_in[23] I
io_in[24] I
io_in[25] I
io_in[26] I
io_in[27] I
io_in[28] I
io_in[29] I
io_in[2] I
io_in[30] I
io_in[31] I
io_in[32] I
io_in[33] I
io_in[34] I
io_in[35] I
io_in[36] I
io_in[37] I
io_in[3] I
io_in[4] I
io_in[5] I
io_in[6] I
io_in[7] I
io_in[8] I
io_in[9] I
io_oeb[0] O
io_oeb[10] O
io_oeb[11] O
io_oeb[12] O
io_oeb[13] O
io_oeb[14] O
io_oeb[15] O
io_oeb[16] O
io_oeb[17] O
io_oeb[18] O
io_oeb[19] O
io_oeb[1] O
io_oeb[20] O
io_oeb[21] O
io_oeb[22] O
io_oeb[23] O
io_oeb[24] O
io_oeb[25] O
io_oeb[26] O
io_oeb[27] O
io_oeb[28] O
io_oeb[29] O
io_oeb[2] O
io_oeb[30] O
io_oeb[31] O
io_oeb[32] O
io_oeb[33] O
io_oeb[34] O
io_oeb[35] O
io_oeb[36] O
io_oeb[37] O
io_oeb[3] O
io_oeb[4] O
io_oeb[5] O
io_oeb[6] O
io_oeb[7] O
io_oeb[8] O
io_oeb[9] O
io_out[0] O
io_out[10] O
io_out[11] O
io_out[12] O
io_out[13] O
io_out[14] O
io_out[15] O
io_out[16] O
io_out[17] O
io_out[18] O
io_out[19] O
io_out[1] O
io_out[20] O
io_out[21] O
io_out[22] O
io_out[23] O
io_out[24] O
io_out[25] O
io_out[26] O
io_out[27] O
io_out[28] O
io_out[29] O
io_out[2] O
io_out[30] O
io_out[31] O
io_out[32] O
io_out[33] O
io_out[34] O
io_out[35] O
io_out[36] O
io_out[37] O
io_out[3] O
io_out[4] O
io_out[5] O
io_out[6] O
io_out[7] O
io_out[8] O
io_out[9] O
la_data_in[0] I
la_data_in[10] I
la_data_in[11] I
la_data_in[12] I
la_data_in[13] I
la_data_in[14] I
la_data_in[15] I
la_data_in[16] I
la_data_in[17] I
la_data_in[18] I
la_data_in[19] I
la_data_in[1] I
la_data_in[20] I
la_data_in[21] I
la_data_in[22] I
la_data_in[23] I
la_data_in[24] I
la_data_in[25] I
la_data_in[26] I
la_data_in[27] I
la_data_in[28] I
la_data_in[29] I
la_data_in[2] I
la_data_in[30] I
la_data_in[31] I
la_data_in[32] I
la_data_in[33] I
la_data_in[34] I
la_data_in[35] I
la_data_in[36] I
la_data_in[37] I
la_data_in[38] I
la_data_in[39] I
la_data_in[3] I
la_data_in[40] I
la_data_in[41] I
la_data_in[42] I
la_data_in[43] I
la_data_in[44] I
la_data_in[45] I
la_data_in[46] I
la_data_in[47] I
la_data_in[48] I
la_data_in[49] I
la_data_in[4] I
la_data_in[50] I
la_data_in[51] I
la_data_in[52] I
la_data_in[53] I
la_data_in[54] I
la_data_in[55] I
la_data_in[56] I
la_data_in[57] I
la_data_in[58] I
la_data_in[59] I
la_data_in[5] I
la_data_in[60] I
la_data_in[61] I
la_data_in[62] I
la_data_in[63] I
la_data_in[6] I
la_data_in[7] I
la_data_in[8] I
la_data_in[9] I
la_data_out[0] O
la_data_out[10] O
la_data_out[11] O
la_data_out[12] O
la_data_out[13] O
la_data_out[14] O
la_data_out[15] O
la_data_out[16] O
la_data_out[17] O
la_data_out[18] O
la_data_out[19] O
la_data_out[1] O
la_data_out[20] O
la_data_out[21] O
la_data_out[22] O
la_data_out[23] O
la_data_out[24] O
la_data_out[25] O
la_data_out[26] O
la_data_out[27] O
la_data_out[28] O
la_data_out[29] O
la_data_out[2] O
la_data_out[30] O
la_data_out[31] O
la_data_out[32] O
la_data_out[33] O
la_data_out[34] O
la_data_out[35] O
la_data_out[36] O
la_data_out[37] O
la_data_out[38] O
la_data_out[39] O
la_data_out[3] O
la_data_out[40] O
la_data_out[41] O
la_data_out[42] O
la_data_out[43] O
la_data_out[44] O
la_data_out[45] O
la_data_out[46] O
la_data_out[47] O
la_data_out[48] O
la_data_out[49] O
la_data_out[4] O
la_data_out[50] O
la_data_out[51] O
la_data_out[52] O
la_data_out[53] O
la_data_out[54] O
la_data_out[55] O
la_data_out[56] O
la_data_out[57] O
la_data_out[58] O
la_data_out[59] O
la_data_out[5] O
la_data_out[60] O
la_data_out[61] O
la_data_out[62] O
la_data_out[63] O
la_data_out[6] O
la_data_out[7] O
la_data_out[8] O
la_data_out[9] O
la_oenb[0] I
la_oenb[10] I
la_oenb[11] I
la_oenb[12] I
la_oenb[13] I
la_oenb[14] I
la_oenb[15] I
la_oenb[16] I
la_oenb[17] I
la_oenb[18] I
la_oenb[19] I
la_oenb[1] I
la_oenb[20] I
la_oenb[21] I
la_oenb[22] I
la_oenb[23] I
la_oenb[24] I
la_oenb[25] I
la_oenb[26] I
la_oenb[27] I
la_oenb[28] I
la_oenb[29] I
la_oenb[2] I
la_oenb[30] I
la_oenb[31] I
la_oenb[32] I
la_oenb[33] I
la_oenb[34] I
la_oenb[35] I
la_oenb[36] I
la_oenb[37] I
la_oenb[38] I
la_oenb[39] I
la_oenb[3] I
la_oenb[40] I
la_oenb[41] I
la_oenb[42] I
la_oenb[43] I
la_oenb[44] I
la_oenb[45] I
la_oenb[46] I
la_oenb[47] I
la_oenb[48] I
la_oenb[49] I
la_oenb[4] I
la_oenb[50] I
la_oenb[51] I
la_oenb[52] I
la_oenb[53] I
la_oenb[54] I
la_oenb[55] I
la_oenb[56] I
la_oenb[57] I
la_oenb[58] I
la_oenb[59] I
la_oenb[5] I
la_oenb[60] I
la_oenb[61] I
la_oenb[62] I
la_oenb[63] I
la_oenb[6] I
la_oenb[7] I
la_oenb[8] I
la_oenb[9] I
user_clock2 I
user_irq[0] O
user_irq[1] O
user_irq[2] O
wb_clk_i I
wb_rst_i I
wbs_ack_o O
wbs_adr_i[0] I
wbs_adr_i[10] I
wbs_adr_i[11] I
wbs_adr_i[12] I
wbs_adr_i[13] I
wbs_adr_i[14] I
wbs_adr_i[15] I
wbs_adr_i[16] I
wbs_adr_i[17] I
wbs_adr_i[18] I
wbs_adr_i[19] I
wbs_adr_i[1] I
wbs_adr_i[20] I
wbs_adr_i[21] I
wbs_adr_i[22] I
wbs_adr_i[23] I
wbs_adr_i[24] I
wbs_adr_i[25] I
wbs_adr_i[26] I
wbs_adr_i[27] I
wbs_adr_i[28] I
wbs_adr_i[29] I
wbs_adr_i[2] I
wbs_adr_i[30] I
wbs_adr_i[31] I
wbs_adr_i[3] I
wbs_adr_i[4] I
wbs_adr_i[5] I
wbs_adr_i[6] I
wbs_adr_i[7] I
wbs_adr_i[8] I
wbs_adr_i[9] I
wbs_cyc_i I
wbs_dat_i[0] I
wbs_dat_i[10] I
wbs_dat_i[11] I
wbs_dat_i[12] I
wbs_dat_i[13] I
wbs_dat_i[14] I
wbs_dat_i[15] I
wbs_dat_i[16] I
wbs_dat_i[17] I
wbs_dat_i[18] I
wbs_dat_i[19] I
wbs_dat_i[1] I
wbs_dat_i[20] I
wbs_dat_i[21] I
wbs_dat_i[22] I
wbs_dat_i[23] I
wbs_dat_i[24] I
wbs_dat_i[25] I
wbs_dat_i[26] I
wbs_dat_i[27] I
wbs_dat_i[28] I
wbs_dat_i[29] I
wbs_dat_i[2] I
wbs_dat_i[30] I
wbs_dat_i[31] I
wbs_dat_i[3] I
wbs_dat_i[4] I
wbs_dat_i[5] I
wbs_dat_i[6] I
wbs_dat_i[7] I
wbs_dat_i[8] I
wbs_dat_i[9] I
wbs_dat_o[0] O
wbs_dat_o[10] O
wbs_dat_o[11] O
wbs_dat_o[12] O
wbs_dat_o[13] O
wbs_dat_o[14] O
wbs_dat_o[15] O
wbs_dat_o[16] O
wbs_dat_o[17] O
wbs_dat_o[18] O
wbs_dat_o[19] O
wbs_dat_o[1] O
wbs_dat_o[20] O
wbs_dat_o[21] O
wbs_dat_o[22] O
wbs_dat_o[23] O
wbs_dat_o[24] O
wbs_dat_o[25] O
wbs_dat_o[26] O
wbs_dat_o[27] O
wbs_dat_o[28] O
wbs_dat_o[29] O
wbs_dat_o[2] O
wbs_dat_o[30] O
wbs_dat_o[31] O
wbs_dat_o[3] O
wbs_dat_o[4] O
wbs_dat_o[5] O
wbs_dat_o[6] O
wbs_dat_o[7] O
wbs_dat_o[8] O
wbs_dat_o[9] O
wbs_sel_i[0] I
wbs_sel_i[1] I
wbs_sel_i[2] I
wbs_sel_i[3] I
wbs_stb_i I
wbs_we_i I

*D_NET *1 0.991831
*CONN
*P io_in[0] I
*I *419:io_in[0] I *D macro_decap64
*I *421:io_in[0] I *D macro_tap
*I *420:io_in[0] I *D macro_golden
*CAP
1 io_in[0] 0.00051408
2 *419:io_in[0] 0.000611403
3 *421:io_in[0] 0.000257499
4 *420:io_in[0] 7.56662e-05
5 *1:32 0.0189307
6 *1:31 0.0193416
7 *1:28 0.00127981
8 *1:26 0.0176215
9 *1:25 0.0182983
10 *1:13 0.000752467
11 *1:11 0.0513598
12 *1:10 0.0513598
13 *1:8 0.0216774
14 *1:7 0.0221915
15 *419:io_in[0] *419:io_out[3] 0.00129209
16 *419:io_in[0] *12:36 0.000177336
17 *419:io_in[0] *40:16 0.000690709
18 *419:io_in[0] *44:15 0.000232922
19 *419:io_in[0] *77:26 0
20 *420:io_in[0] *420:io_active 1.53923e-05
21 *420:io_in[0] *420:io_oeb[0] 1.25736e-05
22 *421:io_in[0] *21:51 0.000170194
23 *421:io_in[0] *71:7 0.00264605
24 *421:io_in[0] *95:5 0.00320936
25 *1:8 *23:8 6.15609e-06
26 *1:8 *77:56 0.112877
27 *1:8 *88:33 0.000235138
28 *1:11 *420:io_oeb[2] 2.36064e-05
29 *1:11 *23:11 0
30 *1:11 *70:34 0.0035488
31 *1:11 *88:30 0.348908
32 *1:11 *104:44 0.0437958
33 *1:11 *105:38 0.000966151
34 *1:11 *105:49 0.00627752
35 *1:11 *322:31 0.000250457
36 *1:11 *389:40 0.000169057
37 *1:25 *420:io_active 1.18244e-05
38 *1:25 *420:io_oeb[0] 8.55239e-06
39 *1:25 *126:32 4.24559e-05
40 *1:25 *126:43 2.02824e-05
41 *1:25 *412:47 0.00130174
42 *1:26 *7:37 0.0905298
43 *1:26 *32:31 0.00411421
44 *1:26 *176:25 0.0331486
45 *1:26 *329:23 0.00174637
46 *1:26 *357:47 0.00414894
47 *1:31 *419:io_out[3] 0.00173738
48 *1:31 *77:26 0
49 *1:32 *33:42 0.000340078
50 *1:32 *34:45 0
51 *1:32 *37:62 0.00164938
52 *1:32 *38:16 0.000627323
53 *1:32 *79:25 0.00278417
54 *1:32 *83:19 0.0943813
55 *1:32 *148:45 0.00546257
56 *1:32 *260:27 0
*RES
1 io_in[0] *1:7 8.685 
2 *1:7 *1:8 310.05 
3 *1:8 *1:10 4.5 
4 *1:10 *1:11 885.33 
5 *1:11 *1:13 4.5 
6 *1:13 *420:io_in[0] 0.585 
7 *1:13 *1:25 14.04 
8 *1:25 *1:26 252.09 
9 *1:26 *1:28 4.5 
10 *1:28 *1:31 9.63 
11 *1:31 *1:32 260.01 
12 *1:32 *421:io_in[0] 17.73 
13 *1:28 *419:io_in[0] 20.16 
*END

*D_NET *2 0.64423
*CONN
*P io_in[10] I
*I *421:io_in[10] I *D macro_tap
*I *420:io_in[10] I *D macro_golden
*I *419:io_in[10] I *D macro_decap64
*CAP
1 io_in[10] 0.000427849
2 *421:io_in[10] 0
3 *420:io_in[10] 0.000860319
4 *419:io_in[10] 0.00121521
5 *2:54 0.00226857
6 *2:47 0.00779755
7 *2:46 0.00552898
8 *2:36 0.00590504
9 *2:35 0.00674647
10 *2:30 0.0117899
11 *2:29 0.0105174
12 *2:25 0.000851398
13 *2:14 0.00184602
14 *2:11 0.104477
15 *2:10 0.104268
16 *2:8 0.00399686
17 *2:7 0.00442471
18 *419:io_in[10] *419:io_out[9] 3.51402e-05
19 *419:io_in[10] *40:52 0.000742088
20 *420:io_in[10] *420:io_oeb[10] 0.000103132
21 *420:io_in[10] *420:io_out[9] 9.09467e-05
22 *2:8 *40:56 0.000676392
23 *2:8 *78:54 0.0204853
24 *2:8 *79:60 0.000217912
25 *2:11 *22:25 0.000139261
26 *2:11 *22:38 0.00097269
27 *2:11 *59:22 0.0232677
28 *2:11 *66:19 0.000312083
29 *2:11 *79:44 0.000178482
30 *2:11 *79:55 7.4345e-05
31 *2:11 *79:57 0
32 *2:11 *93:38 0.000585225
33 *2:11 *98:14 0.0194574
34 *2:14 *40:52 9.71787e-05
35 *2:25 *4:27 0.000339644
36 *2:25 *4:42 0.0127696
37 *2:25 *20:19 0.0132549
38 *2:25 *77:14 0
39 *2:29 *20:19 0.00097743
40 *2:29 *77:14 0
41 *2:30 *5:35 0.000284594
42 *2:30 *332:25 0.00725026
43 *2:30 *332:42 0.000791384
44 *2:30 *352:29 0.000740496
45 *2:30 *352:41 0.0527488
46 *2:30 *403:17 0.000265953
47 *2:30 *414:43 0.0038026
48 *2:35 *333:57 0.00784836
49 *2:35 *334:43 0.00315318
50 *2:35 *388:13 0.00108556
51 *2:35 *407:24 0.00685124
52 *2:36 *419:wbs_dat_o[21] 0.000355565
53 *2:36 *363:49 0.00715189
54 *2:36 *393:17 0.000300706
55 *2:36 *393:19 0.0293442
56 *2:36 *395:17 0.0071612
57 *2:47 *39:8 0.00441092
58 *2:47 *41:27 0.0147227
59 *2:47 *79:11 0.0232514
60 *2:47 *321:55 0.0399208
61 *2:47 *331:43 0.0419967
62 *2:54 *4:19 0
63 *2:54 *21:51 0.0137764
64 *2:54 *41:27 0.00362402
65 *2:54 *70:12 0.0050257
66 *2:54 *79:11 0.000666676
*RES
1 io_in[10] *2:7 7.965 
2 *2:7 *2:8 58.77 
3 *2:8 *2:10 4.5 
4 *2:10 *2:11 854.01 
5 *2:11 *2:14 6.03 
6 *2:14 *419:io_in[10] 10.575 
7 *2:14 *2:25 38.61 
8 *2:25 *2:29 7.47 
9 *2:29 *2:30 160.29 
10 *2:30 *2:35 46.17 
11 *2:35 *2:36 101.7 
12 *2:36 *420:io_in[10] 5.805 
13 *2:25 *2:46 4.5 
14 *2:46 *2:47 237.78 
15 *2:47 *2:54 49.32 
16 *2:54 *421:io_in[10] 4.5 
*END

*D_NET *3 0.748506
*CONN
*P io_in[11] I
*I *419:io_in[11] I *D macro_decap64
*I *421:io_in[11] I *D macro_tap
*I *420:io_in[11] I *D macro_golden
*CAP
1 io_in[11] 0.000492522
2 *419:io_in[11] 0.00265283
3 *421:io_in[11] 0.00160752
4 *420:io_in[11] 0.000160112
5 *3:44 0.00325908
6 *3:43 0.00165156
7 *3:41 0.00314446
8 *3:40 0.00314446
9 *3:28 0.00745797
10 *3:27 0.0108641
11 *3:23 0.00698093
12 *3:18 0.0174328
13 *3:17 0.0153153
14 *3:13 0.00512809
15 *3:11 0.111932
16 *3:10 0.105448
17 *3:8 0.00142784
18 *3:7 0.00192036
19 *419:io_in[11] *419:io_oeb[11] 0.000655666
20 *419:io_in[11] *419:io_out[10] 7.91224e-05
21 *419:io_in[11] *8:62 0.000153738
22 *420:io_in[11] *420:io_oeb[11] 1.04644e-05
23 *420:io_in[11] *420:io_out[10] 5.35743e-05
24 *421:io_in[11] *4:19 0
25 *421:io_in[11] *16:21 0
26 *421:io_in[11] *18:18 0.000498203
27 *421:io_in[11] *41:24 4.56806e-05
28 *421:io_in[11] *78:7 0.000110998
29 *3:8 *40:56 0.0366989
30 *3:8 *79:60 0.0449757
31 *3:11 *419:io_in[26] 3.50027e-05
32 *3:11 *419:io_out[17] 0.00161144
33 *3:11 *13:34 0
34 *3:11 *16:79 0.0194989
35 *3:11 *19:38 0.00231253
36 *3:11 *31:39 0.00228285
37 *3:11 *48:49 0
38 *3:11 *78:51 0
39 *3:11 *81:49 0
40 *3:11 *83:37 0.00603152
41 *3:11 *87:53 0
42 *3:13 *419:io_in[2] 0.000449933
43 *3:13 *43:24 0
44 *3:13 *81:22 1.52473e-05
45 *3:13 *81:49 7.69938e-06
46 *3:13 *83:24 0.00106937
47 *3:13 *83:37 0.016808
48 *3:17 *83:24 0.00399475
49 *3:18 *113:12 0.000103662
50 *3:18 *246:41 0
51 *3:18 *361:45 0.00432225
52 *3:18 *363:23 0.0748354
53 *3:18 *382:21 0.00373565
54 *3:23 *239:38 0.00664091
55 *3:23 *239:40 0.000205983
56 *3:23 *410:18 0.000482634
57 *3:27 *239:40 0.00459263
58 *3:27 *410:18 0
59 *3:28 *420:io_oeb[10] 0
60 *3:28 *420:io_oeb[11] 0.009897
61 *3:28 *420:io_out[10] 0.00155457
62 *3:28 *365:31 0.0102684
63 *3:28 *394:29 0
64 *3:41 *5:29 0.0294967
65 *3:41 *9:31 0.000206814
66 *3:41 *46:39 5.02662e-05
67 *3:41 *80:27 0.096993
68 *3:41 *115:31 0.00240823
69 *3:41 *116:51 0.0364587
70 *3:44 *8:34 0.0146799
71 *3:44 *36:53 0.013767
72 *3:44 *54:52 0.000386387
73 *3:44 *55:46 0
*RES
1 io_in[11] *3:7 8.505 
2 *3:7 *3:8 114.39 
3 *3:8 *3:10 4.5 
4 *3:10 *3:11 850.59 
5 *3:11 *3:13 46.89 
6 *3:13 *3:17 15.75 
7 *3:17 *3:18 186.75 
8 *3:18 *3:23 32.04 
9 *3:23 *3:27 35.37 
10 *3:27 *3:28 90.27 
11 *3:28 *420:io_in[11] 1.485 
12 *3:13 *3:40 4.5 
13 *3:40 *3:41 250.11 
14 *3:41 *3:43 4.5 
15 *3:43 *3:44 47.61 
16 *3:44 *421:io_in[11] 16.965 
17 *3:11 *419:io_in[11] 24.975 
*END

*D_NET *4 0.759015
*CONN
*P io_in[12] I
*I *421:io_in[12] I *D macro_tap
*I *419:io_in[12] I *D macro_decap64
*I *420:io_in[12] I *D macro_golden
*CAP
1 io_in[12] 0.000492522
2 *421:io_in[12] 0.000274685
3 *419:io_in[12] 0.000455979
4 *420:io_in[12] 0.00217145
5 *4:42 0.00222965
6 *4:33 0.0033685
7 *4:28 0.00413995
8 *4:27 0.00307425
9 *4:24 0.00190501
10 *4:22 0.00292143
11 *4:21 0.00292143
12 *4:19 0.00287853
13 *4:11 0.104501
14 *4:10 0.101348
15 *4:8 0.00191113
16 *4:7 0.00240365
17 *419:io_in[12] *419:io_oeb[12] 0.00321306
18 *419:io_in[12] *419:io_out[11] 0.00171181
19 *420:io_in[12] *420:io_oeb[12] 0.000230005
20 *420:io_in[12] *420:io_out[11] 0.000105331
21 *420:io_in[12] *399:17 2.33247e-06
22 *421:io_in[12] *42:7 5.47554e-05
23 *421:io_in[12] *79:8 5.47554e-05
24 *4:8 io_out[12] 0.0138984
25 *4:8 *41:8 0.0230946
26 *4:11 *20:66 0.000610624
27 *4:11 *56:8 0.00742493
28 *4:11 *58:10 0.0140971
29 *4:11 *83:13 0.000448151
30 *4:11 *97:10 0.000950496
31 *4:11 *101:8 0.0156782
32 *4:11 *102:10 0
33 *4:19 *20:66 0.0149684
34 *4:19 *21:51 0
35 *4:19 *41:24 2.15463e-05
36 *4:19 *50:15 5.85082e-05
37 *4:19 *56:8 0.000264918
38 *4:19 *70:12 0
39 *4:19 *79:8 0.00010516
40 *4:22 *12:48 0.00160528
41 *4:22 *40:8 0
42 *4:22 *43:17 0.0875175
43 *4:22 *43:24 0.000709171
44 *4:22 *44:13 0.0922071
45 *4:22 *44:15 0.00629435
46 *4:28 *8:39 0.0933525
47 *4:28 *41:33 0.0934351
48 *4:28 *336:35 0.00191169
49 *4:28 *366:31 0.00285551
50 *4:33 *25:54 0.000197697
51 *4:33 *111:41 0.00106596
52 *4:33 *384:32 0.000919963
53 *4:33 *399:20 0.0152547
54 *4:33 *410:30 0.0069203
55 *4:42 *20:19 0.00109131
56 *4:42 *59:22 0
57 *4:42 *77:14 0
58 *4:42 *79:44 0.0064426
59 *4:42 *79:55 0.000135527
60 *421:io_in[11] *4:19 0
61 *2:25 *4:27 0.000339644
62 *2:25 *4:42 0.0127696
63 *2:54 *4:19 0
*RES
1 io_in[12] *4:7 8.505 
2 *4:7 *4:8 61.47 
3 *4:8 *4:10 4.5 
4 *4:10 *4:11 846.63 
5 *4:11 *4:19 49.41 
6 *4:19 *4:21 4.5 
7 *4:21 *4:22 248.49 
8 *4:22 *4:24 4.5 
9 *4:24 *4:27 5.49 
10 *4:27 *4:28 252.27 
11 *4:28 *4:33 49.41 
12 *4:33 *420:io_in[12] 15.345 
13 *4:24 *4:42 43.29 
14 *4:42 *419:io_in[12] 11.115 
15 *4:11 *421:io_in[12] 6.705 
*END

*D_NET *5 0.650991
*CONN
*P io_in[13] I
*I *419:io_in[13] I *D macro_decap64
*I *420:io_in[13] I *D macro_golden
*I *421:io_in[13] I *D macro_tap
*CAP
1 io_in[13] 0.0925756
2 *419:io_in[13] 0.00225627
3 *420:io_in[13] 0.00288235
4 *421:io_in[13] 0.00155712
5 *5:59 0.00809647
6 *5:46 0.00769078
7 *5:43 0.00865815
8 *5:41 0.00570197
9 *5:35 0.00601381
10 *5:34 0.00416156
11 *5:32 0.00734683
12 *5:29 0.0147719
13 *5:28 0.0132652
14 *5:26 0.00195595
15 *5:25 0.00249401
16 *5:11 0.0107425
17 *5:10 0.00960984
18 *5:5 0.0935381
19 *419:io_in[13] *419:io_oeb[13] 0
20 *419:io_in[13] *80:33 0.00038578
21 *419:io_in[13] *80:38 7.7749e-07
22 *420:io_in[13] *420:io_oeb[12] 0
23 *420:io_in[13] *420:io_oeb[13] 0
24 *420:io_in[13] *420:io_out[12] 0.000635346
25 *420:io_in[13] *43:38 0
26 *420:io_in[13] *81:36 0
27 *421:io_in[13] *8:34 0
28 *421:io_in[13] *43:5 0.000192258
29 *421:io_in[13] *43:66 7.86816e-05
30 *421:io_in[13] *55:46 0.000320343
31 *5:11 *8:34 0
32 *5:11 *22:72 0.00242895
33 *5:11 *43:69 0.0164149
34 *5:11 *46:8 0.000722713
35 *5:11 *46:12 0.000346513
36 *5:11 *46:59 0.0108794
37 *5:11 *52:14 0
38 *5:11 *55:46 0.0141575
39 *5:25 *43:66 3.98162e-05
40 *5:25 *81:9 0.000311442
41 *5:26 *9:28 0.000900731
42 *5:26 *45:14 0.0196915
43 *5:26 *72:12 0.0111966
44 *5:29 *114:11 0.00787279
45 *5:29 *116:51 0.0379647
46 *5:29 *117:47 0.0389577
47 *5:32 *96:28 0.00012204
48 *5:32 *97:22 0
49 *5:35 *332:25 9.48226e-05
50 *5:35 *357:47 0.0631783
51 *5:35 *403:17 0.0575093
52 *5:41 *329:23 1.12725e-05
53 *5:41 *332:25 0.000697256
54 *5:41 *357:17 1.47439e-05
55 *5:41 *357:29 0.00154164
56 *5:41 *357:47 3.08182e-05
57 *5:41 *359:35 0.000288607
58 *5:43 *357:17 0.0236454
59 *5:43 *359:35 0.00505658
60 *5:43 *386:27 9.5155e-05
61 *5:46 *12:11 0
62 *5:46 *108:32 0
63 *5:46 *386:26 0.0107785
64 *5:59 *96:28 0.00132818
65 *5:59 *97:22 0
66 *2:30 *5:35 0.000284594
67 *3:41 *5:29 0.0294967
*RES
1 io_in[13] *5:5 726.885 
2 *5:5 *5:10 15.93 
3 *5:10 *5:11 119.79 
4 *5:11 *421:io_in[13] 16.335 
5 *5:11 *5:25 13.59 
6 *5:25 *5:26 54.45 
7 *5:26 *5:28 4.5 
8 *5:28 *5:29 257.13 
9 *5:29 *5:32 12.15 
10 *5:32 *5:34 4.5 
11 *5:34 *5:35 172.98 
12 *5:35 *5:41 16.02 
13 *5:41 *5:43 64.71 
14 *5:43 *5:46 49.95 
15 *5:46 *420:io_in[13] 25.695 
16 *5:32 *5:59 49.95 
17 *5:59 *419:io_in[13] 16.515 
*END

*D_NET *6 0.801094
*CONN
*P io_in[14] I
*I *419:io_in[14] I *D macro_decap64
*I *420:io_in[14] I *D macro_golden
*I *421:io_in[14] I *D macro_tap
*CAP
1 io_in[14] 0.000606649
2 *419:io_in[14] 0.0031927
3 *420:io_in[14] 0.00319886
4 *421:io_in[14] 0.00125725
5 *6:51 0.00496448
6 *6:39 0.0050531
7 *6:36 0.00579971
8 *6:35 0.00398972
9 *6:30 0.00180625
10 *6:28 0.00542704
11 *6:27 0.00189327
12 *6:25 0.00350639
13 *6:24 0.00350639
14 *6:14 0.00211722
15 *6:11 0.0930452
16 *6:10 0.0921853
17 *6:8 0.000592132
18 *6:7 0.00119878
19 *419:io_in[14] *419:io_oeb[14] 0.00109675
20 *419:io_in[14] *419:io_out[13] 0.000441563
21 *419:io_in[14] *419:io_out[17] 2.36837e-05
22 *420:io_in[14] *420:io_oeb[14] 0.000359769
23 *420:io_in[14] *420:io_out[13] 0.000393185
24 *420:io_in[14] *43:38 0
25 *420:io_in[14] *82:36 0.000675823
26 *421:io_in[14] *44:9 0.000255213
27 *421:io_in[14] *81:9 0.000255213
28 *6:8 *7:11 0.0192598
29 *6:8 *82:69 0.0182183
30 *6:11 *9:28 0.000136496
31 *6:11 *45:14 0.000350486
32 *6:11 *49:10 0.00311203
33 *6:11 *49:25 0.0240705
34 *6:11 *85:10 0
35 *6:11 *89:14 0
36 *6:11 *89:20 0.0678377
37 *6:11 *94:14 0
38 *6:11 *100:12 0.00123429
39 *6:14 *44:9 0.000150158
40 *6:14 *81:9 0.000152199
41 *6:25 *421:io_in[4] 0
42 *6:25 *7:26 0.00177355
43 *6:25 *16:21 0
44 *6:25 *18:22 0.00160403
45 *6:25 *37:67 0.010163
46 *6:28 *8:37 0.0942904
47 *6:28 *8:39 0.00204828
48 *6:28 *42:11 0.0953086
49 *6:28 *44:13 0.000439903
50 *6:30 *8:39 0.0751743
51 *6:30 *42:11 0.00111383
52 *6:30 *42:13 0.0740362
53 *6:35 *239:38 0.000157724
54 *6:35 *385:20 2.62529e-05
55 *6:36 *44:21 0.0207931
56 *6:36 *137:25 0.00108853
57 *6:36 *321:39 0.00380455
58 *6:36 *336:62 3.07804e-06
59 *6:39 *7:40 0.0177026
60 *6:39 *37:41 0.00960316
61 *6:51 *7:50 0.01754
62 *6:51 *82:45 0.00305892
*RES
1 io_in[14] *6:7 8.325 
2 *6:7 *6:8 51.75 
3 *6:8 *6:10 4.5 
4 *6:10 *6:11 841.05 
5 *6:11 *6:14 11.07 
6 *6:14 *421:io_in[14] 10.575 
7 *6:14 *6:24 4.5 
8 *6:24 *6:25 45.81 
9 *6:25 *6:27 4.5 
10 *6:27 *6:28 242.91 
11 *6:28 *6:30 190.71 
12 *6:30 *6:35 9.45 
13 *6:35 *6:36 64.89 
14 *6:36 *6:39 49.95 
15 *6:39 *420:io_in[14] 31.275 
16 *6:28 *6:51 48.87 
17 *6:51 *419:io_in[14] 31.095 
*END

*D_NET *7 0.778514
*CONN
*P io_in[15] I
*I *419:io_in[15] I *D macro_decap64
*I *420:io_in[15] I *D macro_golden
*I *421:io_in[15] I *D macro_tap
*CAP
1 io_in[15] 0.00281871
2 *419:io_in[15] 0.00207151
3 *420:io_in[15] 0.0023027
4 *421:io_in[15] 0.000932512
5 *7:50 0.00297517
6 *7:49 0.00090366
7 *7:40 0.00670856
8 *7:39 0.00440586
9 *7:37 0.00436829
10 *7:35 0.00450472
11 *7:29 0.0312143
12 *7:28 0.0310779
13 *7:26 0.00333192
14 *7:25 0.00333192
15 *7:17 0.0017229
16 *7:14 0.0992595
17 *7:13 0.0984691
18 *7:11 0.00697484
19 *7:10 0.00979356
20 *419:io_in[15] *419:io_oeb[15] 0.00847249
21 *419:io_in[15] *419:io_out[14] 0
22 *420:io_in[15] *420:io_oeb[15] 0.0043233
23 *420:io_in[15] *420:io_out[14] 0
24 *421:io_in[15] *45:11 0.00020774
25 *421:io_in[15] *82:9 0
26 *421:io_in[15] *83:13 0.00141164
27 *7:11 *44:60 0.00248114
28 *7:11 *82:69 0.0037678
29 *7:14 *14:14 0.0307761
30 *7:14 *14:22 0
31 *7:14 *18:27 0.00152734
32 *7:14 *53:16 0
33 *7:14 *84:10 0
34 *7:14 *85:10 0
35 *7:14 *85:58 0.000172657
36 *7:14 *90:12 0.0115684
37 *7:14 *90:29 0.00392026
38 *7:17 *44:56 7.57548e-05
39 *7:17 *82:9 0
40 *7:17 *83:13 0.00143027
41 *7:26 *421:io_in[6] 0.00863848
42 *7:26 *18:22 0.000279652
43 *7:26 *37:67 0.00104999
44 *7:26 *55:46 0.00499799
45 *7:29 *32:49 0.0912476
46 *7:29 *61:11 0.000148425
47 *7:29 *357:47 0.00216899
48 *7:35 *32:49 0.000926175
49 *7:35 *47:46 0.000132514
50 *7:35 *61:11 0.000954704
51 *7:35 *390:16 2.895e-06
52 *7:37 *32:31 0.093933
53 *7:37 *32:48 0.000636107
54 *7:37 *32:49 0.00637485
55 *7:37 *61:11 0.0062318
56 *7:37 *61:17 4.69949e-05
57 *7:37 *329:41 0.00414894
58 *7:37 *352:23 0.00162676
59 *7:40 *37:41 0.000381273
60 *7:50 *38:11 0.00855511
61 *7:50 *38:15 0.0118125
62 *7:50 *82:45 0.000111305
63 *1:26 *7:37 0.0905298
64 *6:8 *7:11 0.0192598
65 *6:25 *7:26 0.00177355
66 *6:39 *7:40 0.0177026
67 *6:51 *7:50 0.01754
*RES
1 io_in[15] *7:10 31.635 
2 *7:10 *7:11 94.05 
3 *7:11 *7:13 4.5 
4 *7:13 *7:14 837.27 
5 *7:14 *7:17 13.23 
6 *7:17 *421:io_in[15] 10.305 
7 *7:17 *7:25 4.5 
8 *7:25 *7:26 52.47 
9 *7:26 *7:28 4.5 
10 *7:28 *7:29 241.29 
11 *7:29 *7:35 11.88 
12 *7:35 *7:37 255.51 
13 *7:37 *7:39 4.5 
14 *7:39 *7:40 52.11 
15 *7:40 *420:io_in[15] 30.285 
16 *7:35 *7:49 4.5 
17 *7:49 *7:50 51.75 
18 *7:50 *419:io_in[15] 28.935 
*END

*D_NET *8 0.721459
*CONN
*P io_in[16] I
*I *419:io_in[16] I *D macro_decap64
*I *420:io_in[16] I *D macro_golden
*I *421:io_in[16] I *D macro_tap
*CAP
1 io_in[16] 0.000247817
2 *419:io_in[16] 0.000568374
3 *420:io_in[16] 0.00245867
4 *421:io_in[16] 0.00166044
5 *8:62 0.00571013
6 *8:56 0.00756668
7 *8:42 0.0048255
8 *8:41 0.00236683
9 *8:39 0.00276798
10 *8:37 0.0082601
11 *8:36 0.00306719