*SPEF "ieee 1481-1999"
*DESIGN "user_project_wrapper"
*DATE "11:11:11 Fri 11 11, 1111"
*VENDOR "OpenRCX"
*PROGRAM "Parallel Extraction"
*VERSION "1.0"
*DESIGN_FLOW "NAME_SCOPE LOCAL" "PIN_CAP NONE"
*DIVIDER /
*DELIMITER :
*BUS_DELIMITER []
*T_UNIT 1 NS
*C_UNIT 1 PF
*R_UNIT 1 OHM
*L_UNIT 1 HENRY

*NAME_MAP
*1 io_in[0]
*2 io_in[10]
*3 io_in[11]
*4 io_in[12]
*5 io_in[13]
*6 io_in[14]
*7 io_in[15]
*8 io_in[16]
*9 io_in[17]
*10 io_in[18]
*11 io_in[19]
*12 io_in[1]
*13 io_in[20]
*14 io_in[21]
*15 io_in[22]
*16 io_in[23]
*17 io_in[24]
*18 io_in[25]
*19 io_in[26]
*20 io_in[27]
*21 io_in[28]
*22 io_in[29]
*23 io_in[2]
*24 io_in[30]
*25 io_in[31]
*26 io_in[32]
*27 io_in[33]
*28 io_in[34]
*29 io_in[35]
*30 io_in[36]
*31 io_in[37]
*32 io_in[3]
*33 io_in[4]
*34 io_in[5]
*35 io_in[6]
*36 io_in[7]
*37 io_in[8]
*38 io_in[9]
*39 io_oeb[0]
*40 io_oeb[10]
*41 io_oeb[11]
*42 io_oeb[12]
*43 io_oeb[13]
*44 io_oeb[14]
*45 io_oeb[15]
*46 io_oeb[16]
*47 io_oeb[17]
*48 io_oeb[18]
*49 io_oeb[19]
*50 io_oeb[1]
*51 io_oeb[20]
*52 io_oeb[21]
*53 io_oeb[22]
*54 io_oeb[23]
*55 io_oeb[24]
*56 io_oeb[25]
*57 io_oeb[26]
*58 io_oeb[27]
*59 io_oeb[28]
*60 io_oeb[29]
*61 io_oeb[2]
*62 io_oeb[30]
*63 io_oeb[31]
*64 io_oeb[32]
*65 io_oeb[33]
*66 io_oeb[34]
*67 io_oeb[35]
*68 io_oeb[36]
*69 io_oeb[37]
*70 io_oeb[3]
*71 io_oeb[4]
*72 io_oeb[5]
*73 io_oeb[6]
*74 io_oeb[7]
*75 io_oeb[8]
*76 io_oeb[9]
*77 io_out[0]
*78 io_out[10]
*79 io_out[11]
*80 io_out[12]
*81 io_out[13]
*82 io_out[14]
*83 io_out[15]
*84 io_out[16]
*85 io_out[17]
*86 io_out[18]
*87 io_out[19]
*88 io_out[1]
*89 io_out[20]
*90 io_out[21]
*91 io_out[22]
*92 io_out[23]
*93 io_out[24]
*94 io_out[25]
*95 io_out[26]
*96 io_out[27]
*97 io_out[28]
*98 io_out[29]
*99 io_out[2]
*100 io_out[30]
*101 io_out[31]
*102 io_out[32]
*103 io_out[33]
*104 io_out[34]
*105 io_out[35]
*106 io_out[36]
*107 io_out[37]
*108 io_out[3]
*109 io_out[4]
*110 io_out[5]
*111 io_out[6]
*112 io_out[7]
*113 io_out[8]
*114 io_out[9]
*115 la_data_in[0]
*116 la_data_in[10]
*117 la_data_in[11]
*118 la_data_in[12]
*119 la_data_in[13]
*120 la_data_in[14]
*121 la_data_in[15]
*122 la_data_in[16]
*123 la_data_in[17]
*124 la_data_in[18]
*125 la_data_in[19]
*126 la_data_in[1]
*127 la_data_in[20]
*128 la_data_in[21]
*129 la_data_in[22]
*130 la_data_in[23]
*131 la_data_in[24]
*132 la_data_in[25]
*133 la_data_in[26]
*134 la_data_in[27]
*135 la_data_in[28]
*136 la_data_in[29]
*137 la_data_in[2]
*138 la_data_in[30]
*139 la_data_in[31]
*140 la_data_in[32]
*141 la_data_in[33]
*142 la_data_in[34]
*143 la_data_in[35]
*144 la_data_in[36]
*145 la_data_in[37]
*146 la_data_in[38]
*147 la_data_in[39]
*148 la_data_in[3]
*149 la_data_in[40]
*150 la_data_in[41]
*151 la_data_in[42]
*152 la_data_in[43]
*153 la_data_in[44]
*154 la_data_in[45]
*155 la_data_in[46]
*156 la_data_in[47]
*157 la_data_in[48]
*158 la_data_in[49]
*159 la_data_in[4]
*160 la_data_in[50]
*161 la_data_in[51]
*162 la_data_in[52]
*163 la_data_in[53]
*164 la_data_in[54]
*165 la_data_in[55]
*166 la_data_in[56]
*167 la_data_in[57]
*168 la_data_in[58]
*169 la_data_in[59]
*170 la_data_in[5]
*171 la_data_in[60]
*172 la_data_in[61]
*173 la_data_in[62]
*174 la_data_in[63]
*175 la_data_in[6]
*176 la_data_in[7]
*177 la_data_in[8]
*178 la_data_in[9]
*179 la_data_out[0]
*180 la_data_out[10]
*181 la_data_out[11]
*182 la_data_out[12]
*183 la_data_out[13]
*184 la_data_out[14]
*185 la_data_out[15]
*186 la_data_out[16]
*187 la_data_out[17]
*188 la_data_out[18]
*189 la_data_out[19]
*190 la_data_out[1]
*191 la_data_out[20]
*192 la_data_out[21]
*193 la_data_out[22]
*194 la_data_out[23]
*195 la_data_out[24]
*196 la_data_out[25]
*197 la_data_out[26]
*198 la_data_out[27]
*199 la_data_out[28]
*200 la_data_out[29]
*201 la_data_out[2]
*202 la_data_out[30]
*203 la_data_out[31]
*204 la_data_out[32]
*205 la_data_out[33]
*206 la_data_out[34]
*207 la_data_out[35]
*208 la_data_out[36]
*209 la_data_out[37]
*210 la_data_out[38]
*211 la_data_out[39]
*212 la_data_out[3]
*213 la_data_out[40]
*214 la_data_out[41]
*215 la_data_out[42]
*216 la_data_out[43]
*217 la_data_out[44]
*218 la_data_out[45]
*219 la_data_out[46]
*220 la_data_out[47]
*221 la_data_out[48]
*222 la_data_out[49]
*223 la_data_out[4]
*224 la_data_out[50]
*225 la_data_out[51]
*226 la_data_out[52]
*227 la_data_out[53]
*228 la_data_out[54]
*229 la_data_out[55]
*230 la_data_out[56]
*231 la_data_out[57]
*232 la_data_out[58]
*233 la_data_out[59]
*234 la_data_out[5]
*235 la_data_out[60]
*236 la_data_out[61]
*237 la_data_out[62]
*238 la_data_out[63]
*239 la_data_out[6]
*240 la_data_out[7]
*241 la_data_out[8]
*242 la_data_out[9]
*243 la_oenb[0]
*244 la_oenb[10]
*245 la_oenb[11]
*246 la_oenb[12]
*247 la_oenb[13]
*248 la_oenb[14]
*249 la_oenb[15]
*250 la_oenb[16]
*251 la_oenb[17]
*252 la_oenb[18]
*253 la_oenb[19]
*254 la_oenb[1]
*255 la_oenb[20]
*256 la_oenb[21]
*257 la_oenb[22]
*258 la_oenb[23]
*259 la_oenb[24]
*260 la_oenb[25]
*261 la_oenb[26]
*262 la_oenb[27]
*263 la_oenb[28]
*264 la_oenb[29]
*265 la_oenb[2]
*266 la_oenb[30]
*267 la_oenb[31]
*268 la_oenb[32]
*269 la_oenb[33]
*270 la_oenb[34]
*271 la_oenb[35]
*272 la_oenb[36]
*273 la_oenb[37]
*274 la_oenb[38]
*275 la_oenb[39]
*276 la_oenb[3]
*277 la_oenb[40]
*278 la_oenb[41]
*279 la_oenb[42]
*280 la_oenb[43]
*281 la_oenb[44]
*282 la_oenb[45]
*283 la_oenb[46]
*284 la_oenb[47]
*285 la_oenb[48]
*286 la_oenb[49]
*287 la_oenb[4]
*288 la_oenb[50]
*289 la_oenb[51]
*290 la_oenb[52]
*291 la_oenb[53]
*292 la_oenb[54]
*293 la_oenb[55]
*294 la_oenb[56]
*295 la_oenb[57]
*296 la_oenb[58]
*297 la_oenb[59]
*298 la_oenb[5]
*299 la_oenb[60]
*300 la_oenb[61]
*301 la_oenb[62]
*302 la_oenb[63]
*303 la_oenb[6]
*304 la_oenb[7]
*305 la_oenb[8]
*306 la_oenb[9]
*307 user_clock2
*308 user_irq[0]
*309 user_irq[1]
*310 user_irq[2]
*313 wb_clk_i
*314 wb_rst_i
*315 wbs_ack_o
*316 wbs_adr_i[0]
*317 wbs_adr_i[10]
*318 wbs_adr_i[11]
*319 wbs_adr_i[12]
*320 wbs_adr_i[13]
*321 wbs_adr_i[14]
*322 wbs_adr_i[15]
*323 wbs_adr_i[16]
*324 wbs_adr_i[17]
*325 wbs_adr_i[18]
*326 wbs_adr_i[19]
*327 wbs_adr_i[1]
*328 wbs_adr_i[20]
*329 wbs_adr_i[21]
*330 wbs_adr_i[22]
*331 wbs_adr_i[23]
*332 wbs_adr_i[24]
*333 wbs_adr_i[25]
*334 wbs_adr_i[26]
*335 wbs_adr_i[27]
*336 wbs_adr_i[28]
*337 wbs_adr_i[29]
*338 wbs_adr_i[2]
*339 wbs_adr_i[30]
*340 wbs_adr_i[31]
*341 wbs_adr_i[3]
*342 wbs_adr_i[4]
*343 wbs_adr_i[5]
*344 wbs_adr_i[6]
*345 wbs_adr_i[7]
*346 wbs_adr_i[8]
*347 wbs_adr_i[9]
*348 wbs_cyc_i
*349 wbs_dat_i[0]
*350 wbs_dat_i[10]
*351 wbs_dat_i[11]
*352 wbs_dat_i[12]
*353 wbs_dat_i[13]
*354 wbs_dat_i[14]
*355 wbs_dat_i[15]
*356 wbs_dat_i[16]
*357 wbs_dat_i[17]
*358 wbs_dat_i[18]
*359 wbs_dat_i[19]
*360 wbs_dat_i[1]
*361 wbs_dat_i[20]
*362 wbs_dat_i[21]
*363 wbs_dat_i[22]
*364 wbs_dat_i[23]
*365 wbs_dat_i[24]
*366 wbs_dat_i[25]
*367 wbs_dat_i[26]
*368 wbs_dat_i[27]
*369 wbs_dat_i[28]
*370 wbs_dat_i[29]
*371 wbs_dat_i[2]
*372 wbs_dat_i[30]
*373 wbs_dat_i[31]
*374 wbs_dat_i[3]
*375 wbs_dat_i[4]
*376 wbs_dat_i[5]
*377 wbs_dat_i[6]
*378 wbs_dat_i[7]
*379 wbs_dat_i[8]
*380 wbs_dat_i[9]
*381 wbs_dat_o[0]
*382 wbs_dat_o[10]
*383 wbs_dat_o[11]
*384 wbs_dat_o[12]
*385 wbs_dat_o[13]
*386 wbs_dat_o[14]
*387 wbs_dat_o[15]
*388 wbs_dat_o[16]
*389 wbs_dat_o[17]
*390 wbs_dat_o[18]
*391 wbs_dat_o[19]
*392 wbs_dat_o[1]
*393 wbs_dat_o[20]
*394 wbs_dat_o[21]
*395 wbs_dat_o[22]
*396 wbs_dat_o[23]
*397 wbs_dat_o[24]
*398 wbs_dat_o[25]
*399 wbs_dat_o[26]
*400 wbs_dat_o[27]
*401 wbs_dat_o[28]
*402 wbs_dat_o[29]
*403 wbs_dat_o[2]
*404 wbs_dat_o[30]
*405 wbs_dat_o[31]
*406 wbs_dat_o[3]
*407 wbs_dat_o[4]
*408 wbs_dat_o[5]
*409 wbs_dat_o[6]
*410 wbs_dat_o[7]
*411 wbs_dat_o[8]
*412 wbs_dat_o[9]
*413 wbs_sel_i[0]
*414 wbs_sel_i[1]
*415 wbs_sel_i[2]
*416 wbs_sel_i[3]
*417 wbs_stb_i
*418 wbs_we_i
*419 u_macro_golden

*PORTS
io_in[0] I
io_in[10] I
io_in[11] I
io_in[12] I
io_in[13] I
io_in[14] I
io_in[15] I
io_in[16] I
io_in[17] I
io_in[18] I
io_in[19] I
io_in[1] I
io_in[20] I
io_in[21] I
io_in[22] I
io_in[23] I
io_in[24] I
io_in[25] I
io_in[26] I
io_in[27] I
io_in[28] I
io_in[29] I
io_in[2] I
io_in[30] I
io_in[31] I
io_in[32] I
io_in[33] I
io_in[34] I
io_in[35] I
io_in[36] I
io_in[37] I
io_in[3] I
io_in[4] I
io_in[5] I
io_in[6] I
io_in[7] I
io_in[8] I
io_in[9] I
io_oeb[0] O
io_oeb[10] O
io_oeb[11] O
io_oeb[12] O
io_oeb[13] O
io_oeb[14] O
io_oeb[15] O
io_oeb[16] O
io_oeb[17] O
io_oeb[18] O
io_oeb[19] O
io_oeb[1] O
io_oeb[20] O
io_oeb[21] O
io_oeb[22] O
io_oeb[23] O
io_oeb[24] O
io_oeb[25] O
io_oeb[26] O
io_oeb[27] O
io_oeb[28] O
io_oeb[29] O
io_oeb[2] O
io_oeb[30] O
io_oeb[31] O
io_oeb[32] O
io_oeb[33] O
io_oeb[34] O
io_oeb[35] O
io_oeb[36] O
io_oeb[37] O
io_oeb[3] O
io_oeb[4] O
io_oeb[5] O
io_oeb[6] O
io_oeb[7] O
io_oeb[8] O
io_oeb[9] O
io_out[0] O
io_out[10] O
io_out[11] O
io_out[12] O
io_out[13] O
io_out[14] O
io_out[15] O
io_out[16] O
io_out[17] O
io_out[18] O
io_out[19] O
io_out[1] O
io_out[20] O
io_out[21] O
io_out[22] O
io_out[23] O
io_out[24] O
io_out[25] O
io_out[26] O
io_out[27] O
io_out[28] O
io_out[29] O
io_out[2] O
io_out[30] O
io_out[31] O
io_out[32] O
io_out[33] O
io_out[34] O
io_out[35] O
io_out[36] O
io_out[37] O
io_out[3] O
io_out[4] O
io_out[5] O
io_out[6] O
io_out[7] O
io_out[8] O
io_out[9] O
la_data_in[0] I
la_data_in[10] I
la_data_in[11] I
la_data_in[12] I
la_data_in[13] I
la_data_in[14] I
la_data_in[15] I
la_data_in[16] I
la_data_in[17] I
la_data_in[18] I
la_data_in[19] I
la_data_in[1] I
la_data_in[20] I
la_data_in[21] I
la_data_in[22] I
la_data_in[23] I
la_data_in[24] I
la_data_in[25] I
la_data_in[26] I
la_data_in[27] I
la_data_in[28] I
la_data_in[29] I
la_data_in[2] I
la_data_in[30] I
la_data_in[31] I
la_data_in[32] I
la_data_in[33] I
la_data_in[34] I
la_data_in[35] I
la_data_in[36] I
la_data_in[37] I
la_data_in[38] I
la_data_in[39] I
la_data_in[3] I
la_data_in[40] I
la_data_in[41] I
la_data_in[42] I
la_data_in[43] I
la_data_in[44] I
la_data_in[45] I
la_data_in[46] I
la_data_in[47] I
la_data_in[48] I
la_data_in[49] I
la_data_in[4] I
la_data_in[50] I
la_data_in[51] I
la_data_in[52] I
la_data_in[53] I
la_data_in[54] I
la_data_in[55] I
la_data_in[56] I
la_data_in[57] I
la_data_in[58] I
la_data_in[59] I
la_data_in[5] I
la_data_in[60] I
la_data_in[61] I
la_data_in[62] I
la_data_in[63] I
la_data_in[6] I
la_data_in[7] I
la_data_in[8] I
la_data_in[9] I
la_data_out[0] O
la_data_out[10] O
la_data_out[11] O
la_data_out[12] O
la_data_out[13] O
la_data_out[14] O
la_data_out[15] O
la_data_out[16] O
la_data_out[17] O
la_data_out[18] O
la_data_out[19] O
la_data_out[1] O
la_data_out[20] O
la_data_out[21] O
la_data_out[22] O
la_data_out[23] O
la_data_out[24] O
la_data_out[25] O
la_data_out[26] O
la_data_out[27] O
la_data_out[28] O
la_data_out[29] O
la_data_out[2] O
la_data_out[30] O
la_data_out[31] O
la_data_out[32] O
la_data_out[33] O
la_data_out[34] O
la_data_out[35] O
la_data_out[36] O
la_data_out[37] O
la_data_out[38] O
la_data_out[39] O
la_data_out[3] O
la_data_out[40] O
la_data_out[41] O
la_data_out[42] O
la_data_out[43] O
la_data_out[44] O
la_data_out[45] O
la_data_out[46] O
la_data_out[47] O
la_data_out[48] O
la_data_out[49] O
la_data_out[4] O
la_data_out[50] O
la_data_out[51] O
la_data_out[52] O
la_data_out[53] O
la_data_out[54] O
la_data_out[55] O
la_data_out[56] O
la_data_out[57] O
la_data_out[58] O
la_data_out[59] O
la_data_out[5] O
la_data_out[60] O
la_data_out[61] O
la_data_out[62] O
la_data_out[63] O
la_data_out[6] O
la_data_out[7] O
la_data_out[8] O
la_data_out[9] O
la_oenb[0] I
la_oenb[10] I
la_oenb[11] I
la_oenb[12] I
la_oenb[13] I
la_oenb[14] I
la_oenb[15] I
la_oenb[16] I
la_oenb[17] I
la_oenb[18] I
la_oenb[19] I
la_oenb[1] I
la_oenb[20] I
la_oenb[21] I
la_oenb[22] I
la_oenb[23] I
la_oenb[24] I
la_oenb[25] I
la_oenb[26] I
la_oenb[27] I
la_oenb[28] I
la_oenb[29] I
la_oenb[2] I
la_oenb[30] I
la_oenb[31] I
la_oenb[32] I
la_oenb[33] I
la_oenb[34] I
la_oenb[35] I
la_oenb[36] I
la_oenb[37] I
la_oenb[38] I
la_oenb[39] I
la_oenb[3] I
la_oenb[40] I
la_oenb[41] I
la_oenb[42] I
la_oenb[43] I
la_oenb[44] I
la_oenb[45] I
la_oenb[46] I
la_oenb[47] I
la_oenb[48] I
la_oenb[49] I
la_oenb[4] I
la_oenb[50] I
la_oenb[51] I
la_oenb[52] I
la_oenb[53] I
la_oenb[54] I
la_oenb[55] I
la_oenb[56] I
la_oenb[57] I
la_oenb[58] I
la_oenb[59] I
la_oenb[5] I
la_oenb[60] I
la_oenb[61] I
la_oenb[62] I
la_oenb[63] I
la_oenb[6] I
la_oenb[7] I
la_oenb[8] I
la_oenb[9] I
user_clock2 I
user_irq[0] O
user_irq[1] O
user_irq[2] O
wb_clk_i I
wb_rst_i I
wbs_ack_o O
wbs_adr_i[0] I
wbs_adr_i[10] I
wbs_adr_i[11] I
wbs_adr_i[12] I
wbs_adr_i[13] I
wbs_adr_i[14] I
wbs_adr_i[15] I
wbs_adr_i[16] I
wbs_adr_i[17] I
wbs_adr_i[18] I
wbs_adr_i[19] I
wbs_adr_i[1] I
wbs_adr_i[20] I
wbs_adr_i[21] I
wbs_adr_i[22] I
wbs_adr_i[23] I
wbs_adr_i[24] I
wbs_adr_i[25] I
wbs_adr_i[26] I
wbs_adr_i[27] I
wbs_adr_i[28] I
wbs_adr_i[29] I
wbs_adr_i[2] I
wbs_adr_i[30] I
wbs_adr_i[31] I
wbs_adr_i[3] I
wbs_adr_i[4] I
wbs_adr_i[5] I
wbs_adr_i[6] I
wbs_adr_i[7] I
wbs_adr_i[8] I
wbs_adr_i[9] I
wbs_cyc_i I
wbs_dat_i[0] I
wbs_dat_i[10] I
wbs_dat_i[11] I
wbs_dat_i[12] I
wbs_dat_i[13] I
wbs_dat_i[14] I
wbs_dat_i[15] I
wbs_dat_i[16] I
wbs_dat_i[17] I
wbs_dat_i[18] I
wbs_dat_i[19] I
wbs_dat_i[1] I
wbs_dat_i[20] I
wbs_dat_i[21] I
wbs_dat_i[22] I
wbs_dat_i[23] I
wbs_dat_i[24] I
wbs_dat_i[25] I
wbs_dat_i[26] I
wbs_dat_i[27] I
wbs_dat_i[28] I
wbs_dat_i[29] I
wbs_dat_i[2] I
wbs_dat_i[30] I
wbs_dat_i[31] I
wbs_dat_i[3] I
wbs_dat_i[4] I
wbs_dat_i[5] I
wbs_dat_i[6] I
wbs_dat_i[7] I
wbs_dat_i[8] I
wbs_dat_i[9] I
wbs_dat_o[0] O
wbs_dat_o[10] O
wbs_dat_o[11] O
wbs_dat_o[12] O
wbs_dat_o[13] O
wbs_dat_o[14] O
wbs_dat_o[15] O
wbs_dat_o[16] O
wbs_dat_o[17] O
wbs_dat_o[18] O
wbs_dat_o[19] O
wbs_dat_o[1] O
wbs_dat_o[20] O
wbs_dat_o[21] O
wbs_dat_o[22] O
wbs_dat_o[23] O
wbs_dat_o[24] O
wbs_dat_o[25] O
wbs_dat_o[26] O
wbs_dat_o[27] O
wbs_dat_o[28] O
wbs_dat_o[29] O
wbs_dat_o[2] O
wbs_dat_o[30] O
wbs_dat_o[31] O
wbs_dat_o[3] O
wbs_dat_o[4] O
wbs_dat_o[5] O
wbs_dat_o[6] O
wbs_dat_o[7] O
wbs_dat_o[8] O
wbs_dat_o[9] O
wbs_sel_i[0] I
wbs_sel_i[1] I
wbs_sel_i[2] I
wbs_sel_i[3] I
wbs_stb_i I
wbs_we_i I

*D_NET *1 0.367272
*CONN
*P io_in[0] I
*I *419:io_in[0] I *D macro_golden
*CAP
1 io_in[0] 0.00475807
2 *419:io_in[0] 6.00876e-06
3 *1:12 0.0944953
4 *1:11 0.0944893
5 *1:9 0.0676447
6 *1:7 0.0724027
7 *419:io_in[0] *59:9 0.000100659
8 *419:io_in[0] *102:17 0.000100659
9 *1:7 *302:10 0
10 *1:9 la_data_out[14] 0.00231186
11 *1:9 la_data_out[26] 0.00115449
12 *1:9 *116:8 0
13 *1:9 *117:8 0
14 *1:9 *121:10 0
15 *1:9 *123:10 0.000483551
16 *1:9 *124:10 0.0018892
17 *1:9 *131:10 0.000505685
18 *1:9 *133:10 0
19 *1:9 *205:12 0
20 *1:9 *237:16 0
21 *1:9 *241:12 0
22 *1:9 *258:10 0
23 *1:9 *402:10 0
24 *1:12 la_data_out[5] 0.000109714
25 *1:12 *418:15 0.0268202
*RES
1 io_in[0] *1:7 37.305 
2 *1:7 *1:9 529.38 
3 *1:9 *1:11 4.5 
4 *1:11 *1:12 724.05 
5 *1:12 *419:io_in[0] 9.27 
*END

*D_NET *2 0.265759
*CONN
*P io_in[10] I
*I *419:io_in[10] I *D macro_golden
*CAP
1 io_in[10] 0.000457792
2 *419:io_in[10] 0.000348057
3 *2:17 0.000841788
4 *2:16 0.000643236
5 *2:11 0.0455106
6 *2:10 0.0453611
7 *2:8 8.15684e-05
8 *2:7 0.00053936
9 *419:io_in[10] *59:9 0.00591328
10 *419:io_in[10] *102:17 0.00591328
11 *2:8 *76:12 0.0331365
12 *2:8 *111:11 0.0336967
13 *2:8 *114:11 0.000246552
14 *2:11 *419:io_in[33] 9.66696e-05
15 *2:11 *419:io_in[35] 9.66696e-05
16 *2:11 *419:io_in[36] 2.58505e-05
17 *2:11 *65:10 4.94569e-05
18 *2:11 *66:7 0.000100659
19 *2:11 *67:10 0.000120276
20 *2:11 *69:10 0.000120276
21 *2:11 *76:9 0
22 *2:11 *98:9 0
23 *2:11 *101:7 9.19699e-05
24 *2:11 *102:11 0.00513917
25 *2:11 *104:7 0.000100659
26 *2:11 *107:10 0.000143882
27 *2:17 *21:11 0.0441904
28 *2:17 *102:11 0.000571677
29 *2:17 *102:13 0.0422217
*RES
1 io_in[10] *2:7 7.785 
2 *2:7 *2:8 85.77 
3 *2:8 *2:10 4.5 
4 *2:10 *2:11 366.03 
5 *2:11 *2:16 9.81 
6 *2:16 *2:17 110.43 
7 *2:17 *419:io_in[10] 29.61 
*END

*D_NET *3 0.318948
*CONN
*P io_in[11] I
*I *419:io_in[11] I *D macro_golden
*CAP
1 io_in[11] 0.000792916
2 *419:io_in[11] 0.00121282
3 *3:11 0.0253599
4 *3:10 0.02494
5 *419:io_in[11] *41:9 0
6 *3:10 *38:8 0.00970356
7 *3:10 *40:11 0.0117205
8 *3:10 *114:11 0.00091153
9 *3:11 *40:8 0.193347
10 *3:11 *60:8 0.0509597
*RES
1 io_in[11] *3:10 43.155 
2 *3:10 *3:11 485.01 
3 *3:11 *419:io_in[11] 11.385 
*END

*D_NET *4 0.151306
*CONN
*P io_in[12] I
*I *419:io_in[12] I *D macro_golden
*CAP
1 io_in[12] 0.00284701
2 *419:io_in[12] 0.00148782
3 *4:11 0.053399
4 *4:10 0.0547582
5 *419:io_in[12] *42:13 0.00025261
6 *4:10 *5:8 8.57174e-05
7 *4:10 *6:8 0.00937076
8 *4:10 *114:11 0.000464274
9 *4:11 *48:10 0.0112134
10 *4:11 *51:10 0.00203502
11 *4:11 *75:8 0.0153918
12 *4:11 *111:8 0
*RES
1 io_in[12] *4:10 42.795 
2 *4:10 *4:11 477.81 
3 *4:11 *419:io_in[12] 15.165 
*END

*D_NET *5 0.20536
*CONN
*P io_in[13] I
*I *419:io_in[13] I *D macro_golden
*CAP
1 io_in[13] 0.00044062
2 *419:io_in[13] 0.00178076
3 *5:11 0.0583073
4 *5:10 0.0565266
5 *5:8 0.00114746
6 *5:7 0.00158808
7 *419:io_in[13] *43:13 0.000324799
8 *419:io_in[13] *80:11 0.000130952
9 *5:8 *6:8 0.000853306
10 *5:8 *7:11 0.00466973
11 *5:8 *42:17 0.0230152
12 *5:8 *81:13 0.0302416
13 *5:8 *114:11 0.000256967
14 *5:11 *53:8 0.0259911
15 *5:11 *111:8 0
16 *5:11 *114:8 0
17 *4:10 *5:8 8.57174e-05
*RES
1 io_in[13] *5:7 7.785 
2 *5:7 *5:8 90.63 
3 *5:8 *5:10 4.5 
4 *5:10 *5:11 471.69 
5 *5:11 *419:io_in[13] 17.865 
*END

*D_NET *6 0.222573
*CONN
*P io_in[14] I
*I *419:io_in[14] I *D macro_golden
*CAP
1 io_in[14] 0.00066063
2 *419:io_in[14] 0.00251679
3 *6:11 0.0581771
4 *6:10 0.0556603
5 *6:8 0.0089409
6 *6:7 0.00960153
7 *6:8 *43:17 0.0028489
8 *6:8 *81:13 0.000289191
9 *6:8 *82:11 0.0479544
10 *6:11 *54:14 0.0256995
11 *6:11 *114:8 0
12 *4:10 *6:8 0.00937076
13 *5:8 *6:8 0.000853306
*RES
1 io_in[14] *6:7 8.505 
2 *6:7 *6:8 151.47 
3 *6:8 *6:10 4.5 
4 *6:10 *6:11 464.67 
5 *6:11 *419:io_in[14] 21.555 
*END

*D_NET *7 0.268441
*CONN
*P io_in[15] I
*I *419:io_in[15] I *D macro_golden
*CAP
1 io_in[15] 0.00290494
2 *419:io_in[15] 0.00266387
3 *7:14 0.0562832
4 *7:13 0.0536193
5 *7:11 0.00560322
6 *7:10 0.00850817
7 *419:io_in[15] *82:5 0.00108554
8 *7:11 *42:17 0.0230072
9 *7:11 *43:17 0.00175967
10 *7:11 *44:13 0.0699075
11 *7:11 *81:13 0.00248114
12 *7:11 *82:11 0.00274461
13 *7:14 io_oeb[11] 0.00127979
14 *7:14 *41:10 0
15 *7:14 *57:10 0.0319235
16 *5:8 *7:11 0.00466973
*RES
1 io_in[15] *7:10 32.355 
2 *7:10 *7:11 193.77 
3 *7:11 *7:13 4.5 
4 *7:13 *7:14 459.99 
5 *7:14 *419:io_in[15] 25.695 
*END

*D_NET *8 0.183952
*CONN
*P io_in[16] I
*I *419:io_in[16] I *D macro_golden
*CAP
1 io_in[16] 0.000431381
2 *419:io_in[16] 0.00133023
3 *8:11 0.0293711
4 *8:10 0.0280408
5 *8:8 0.0205555
6 *8:7 0.0209869
7 *419:io_in[16] *40:8 0.00107382
8 *419:io_in[16] *46:9 0
9 *419:io_in[16] *94:8 7.9599e-05
10 *8:8 *14:16 0.0124832
11 *8:8 *15:8 0.0157431
12 *8:8 *45:14 0.0531134
13 *8:8 *92:14 0.000743366
14 *8:11 *46:9 0
15 *8:11 *84:9 0
*RES
1 io_in[16] *8:7 7.785 
2 *8:7 *8:8 327.15 
3 *8:8 *8:10 4.5 
4 *8:10 *8:11 211.77 
5 *8:11 *419:io_in[16] 18.315 
*END

*D_NET *9 0.131113
*CONN
*P io_in[17] I
*I *419:io_in[17] I *D macro_golden
*CAP
1 io_in[17] 0.000749664
2 *419:io_in[17] 0.00222135
3 *9:19 0.0288808
4 *9:18 0.0266595
5 *9:16 0.0166751
6 *9:15 0.0174248
7 *419:io_in[17] *51:11 0
8 *9:16 *16:8 0.0162329
9 *9:16 *17:11 0.0011715
10 *9:16 *45:14 0.0210975
11 *9:19 *51:11 0
*RES
1 io_in[17] *9:15 10.845 
2 *9:15 *9:16 215.55 
3 *9:16 *9:18 4.5 
4 *9:18 *9:19 202.68 
5 *9:19 *419:io_in[17] 14.985 
*END

*D_NET *10 0.114084
*CONN
*P io_in[18] I
*I *419:io_in[18] I *D macro_golden
*CAP
1 io_in[18] 0.00109977
2 *419:io_in[18] 0.00428123
3 *10:11 0.029379
4 *10:10 0.0250978
5 *10:8 0.00662011
6 *10:7 0.00771988
7 *419:io_in[18] *47:11 0
8 *419:io_in[18] *85:10 0.00014919
9 *419:io_in[18] *85:13 0.000597136
10 *419:io_in[18] *86:10 4.37922e-05
11 *10:8 *47:14 0.0390958
*RES
1 io_in[18] *10:7 12.645 
2 *10:7 *10:8 98.19 
3 *10:8 *10:10 4.5 
4 *10:10 *10:11 190.89 
5 *10:11 *419:io_in[18] 40.365 
*END

*D_NET *11 0.0638543
*CONN
*P io_in[19] I
*I *419:io_in[19] I *D macro_golden
*CAP
1 io_in[19] 0.00164333
2 *419:io_in[19] 0.00172804
3 *11:11 0.0285221
4 *11:10 0.0284373
5 *419:io_in[19] *97:8 0.00196875
6 *11:10 *47:11 0.000240561
7 *11:10 *47:14 0.00067964
8 *11:11 *48:10 0.000634569
9 *11:11 *86:9 0
*RES
1 io_in[19] *11:10 23.175 
2 *11:10 *11:11 203.49 
3 *11:11 *419:io_in[19] 23.175 
*END

*D_NET *12 0.315607
*CONN
*P io_in[1] I
*I *419:io_in[1] I *D macro_golden
*CAP
1 io_in[1] 0.000370905
2 *419:io_in[1] 0.000177071
3 *12:16 0.0830866
4 *12:15 0.0829095
5 *12:13 0.0742956
6 *12:11 0.0746665
7 *419:io_in[1] *59:9 0.000100659
*RES
1 io_in[1] *12:11 3.195 
2 *12:11 *12:13 557.91 
3 *12:13 *12:15 4.5 
4 *12:15 *12:16 662.31 
5 *12:16 *419:io_in[1] 10.395 
*END

*D_NET *13 0.106282
*CONN
*P io_in[20] I
*I *419:io_in[20] I *D macro_golden
*CAP
1 io_in[20] 0.0257439
2 *419:io_in[20] 0.00318825
3 *13:8 0.0157029
4 *13:7 0.0125146
5 *13:5 0.0257439
6 *419:io_in[20] *87:5 0.00197389
7 *13:8 *42:14 0.0214146
*RES
1 io_in[20] *13:5 197.145 
2 *13:5 *13:7 4.5 
3 *13:7 *13:8 121.95 
4 *13:8 *419:io_in[20] 31.095 
*END

*D_NET *14 0.206939
*CONN
*P io_in[21] I
*I *419:io_in[21] I *D macro_golden
*CAP
1 io_in[21] 0.000595827
2 *419:io_in[21] 0.000166616
3 *14:19 0.0292454
4 *14:18 0.0290788
5 *14:16 0.00173417
6 *14:15 0.00233
7 *14:16 *15:8 0.0375516
8 *14:16 *92:14 0.0937531
9 *8:8 *14:16 0.0124832
*RES
1 io_in[21] *14:15 9.765 
2 *14:15 *14:16 234.63 
3 *14:16 *14:18 4.5 
4 *14:18 *14:19 218.43 
5 *14:19 *419:io_in[21] 1.305 
*END

*D_NET *15 0.209982
*CONN
*P io_in[22] I
*I *419:io_in[22] I *D macro_golden
*CAP
1 io_in[22] 0.000470325
2 *419:io_in[22] 0.00223734
3 *15:11 0.0290207
4 *15:10 0.0267834
5 *15:8 0.00502574
6 *15:7 0.00549606
7 *15:8 *17:11 0.0564111
8 *15:8 *45:14 0.0178387
9 *15:8 *92:14 0.0134041
10 *15:11 *56:17 0
11 *8:8 *15:8 0.0157431
12 *14:16 *15:8 0.0375516
*RES
1 io_in[22] *15:7 7.965 
2 *15:7 *15:8 350.19 
3 *15:8 *15:10 4.5 
4 *15:10 *15:11 203.4 
5 *15:11 *419:io_in[22] 14.985 
*END

*D_NET *16 0.315937
*CONN
*P io_in[23] I
*I *419:io_in[23] I *D macro_golden
*CAP
1 io_in[23] 0.000555246
2 *419:io_in[23] 0.00242502
3 *16:11 0.0290717
4 *16:10 0.0266467
5 *16:8 0.0279658
6 *16:7 0.0285211
7 *16:8 *17:11 0.184518
8 *16:11 *91:13 0
9 *9:16 *16:8 0.0162329
*RES
1 io_in[23] *16:7 8.505 
2 *16:7 *16:8 461.97 
3 *16:8 *16:10 4.5 
4 *16:10 *16:11 202.86 
5 *16:11 *419:io_in[23] 16.695 
*END

*D_NET *17 0.36948
*CONN
*P io_in[24] I
*I *419:io_in[24] I *D macro_golden
*CAP
1 io_in[24] 0.00210636
2 *419:io_in[24] 0.00110871
3 *17:14 0.0289528
4 *17:13 0.0278441
5 *17:11 0.0157391
6 *17:10 0.0178455
7 *419:io_in[24] *40:8 0.000895822
8 *419:io_in[24] *94:8 7.47176e-05
9 *17:11 *45:14 0.0226213
10 *17:11 *92:14 0.0101906
11 *9:16 *17:11 0.0011715
12 *15:8 *17:11 0.0564111
13 *16:8 *17:11 0.184518
*RES
1 io_in[24] *17:10 24.795 
2 *17:10 *17:11 550.89 
3 *17:11 *17:13 4.5 
4 *17:13 *17:14 211.23 
5 *17:14 *419:io_in[24] 17.775 
*END

*D_NET *18 0.206412
*CONN
*P io_in[25] I
*I *419:io_in[25] I *D macro_golden
*CAP
1 io_in[25] 0.00452077
2 *419:io_in[25] 0.00327339
3 *18:19 0.0672632
4 *18:18 0.0639898
5 *18:16 0.0145918
6 *18:15 0.0191126
7 *419:io_in[25] *19:12 5.9806e-05
8 *419:io_in[25] *56:13 0
9 *419:io_in[25] *93:8 0.00244802
10 *18:19 *81:10 0.0311524
*RES
1 io_in[25] *18:15 33.705 
2 *18:15 *18:16 112.23 
3 *18:16 *18:18 4.5 
4 *18:18 *18:19 536.49 
5 *18:19 *419:io_in[25] 33.615 
*END

*D_NET *19 0.16693
*CONN
*P io_in[26] I
*I *419:io_in[26] I *D macro_golden
*CAP
1 io_in[26] 0.00179421
2 *419:io_in[26] 0.00460673
3 *19:12 0.0106706
4 *19:11 0.00606383
5 *19:9 0.0707951
6 *19:7 0.0725893
7 *419:io_in[26] *42:14 0
8 *419:io_in[26] *81:10 0.000229477
9 *419:io_in[26] *94:7 0.000121065
10 *19:12 *56:13 0
11 *19:12 *93:8 0
12 *419:io_in[25] *19:12 5.9806e-05
*RES
1 io_in[26] *19:7 13.185 
2 *19:7 *19:9 552.24 
3 *19:9 *19:11 4.5 
4 *19:11 *19:12 45.63 
5 *19:12 *419:io_in[26] 43.245 
*END

*D_NET *20 0.187541
*CONN
*P io_in[27] I
*I *419:io_in[27] I *D macro_golden
*CAP
1 io_in[27] 0.00035683
2 *419:io_in[27] 0.00022407
3 *20:21 0.0140767
4 *20:19 0.0181362
5 *20:13 0.0493539
6 *20:11 0.0454272
7 *20:19 *22:19 0.0021523
8 *20:21 *22:19 0.00787587
9 *20:21 *38:11 0.0499378
*RES
1 io_in[27] *20:11 3.015 
2 *20:11 *20:13 353.16 
3 *20:13 *20:19 38.43 
4 *20:19 *20:21 189 
5 *20:21 *419:io_in[27] 6.255 
*END

*D_NET *21 0.228583
*CONN
*P io_in[28] I
*I *419:io_in[28] I *D macro_golden
*CAP
1 io_in[28] 0.00274339
2 *419:io_in[28] 7.08271e-05
3 *21:11 0.0563255
4 *21:10 0.0562547
5 *21:8 0.00817542
6 *21:7 0.0109188
7 *21:11 *58:9 0
8 *21:11 *98:9 0.0069234
9 *21:11 *102:11 3.37574e-05
10 *21:11 *102:13 5.1403e-05
11 *21:11 *102:17 0.0428951
12 *2:17 *21:11 0.0441904
*RES
1 io_in[28] *21:7 21.465 
2 *21:7 *21:8 62.73 
3 *21:8 *21:10 4.5 
4 *21:10 *21:11 570.33 
5 *21:11 *419:io_in[28] 4.95 
*END

*D_NET *22 0.227777
*CONN
*P io_in[29] I
*I *419:io_in[29] I *D macro_golden
*CAP
1 io_in[29] 0.000177869
2 *419:io_in[29] 0.000279497
3 *22:19 0.0162105
4 *22:18 0.015931
5 *22:16 0.0176546
6 *22:15 0.0176546
7 *22:13 0.0482921
8 *22:11 0.04847
9 *22:19 *38:11 0.00219583
10 *22:19 *78:8 0.0508832
11 *20:19 *22:19 0.0021523
12 *20:21 *22:19 0.00787587
*RES
1 io_in[29] *22:11 1.935 
2 *22:11 *22:13 378.81 
3 *22:13 *22:15 4.5 
4 *22:15 *22:16 135.63 
5 *22:16 *22:18 4.5 
6 *22:18 *22:19 215.55 
7 *22:19 *419:io_in[29] 6.345 
*END

*D_NET *23 0.338216
*CONN
*P io_in[2] I
*I *419:io_in[2] I *D macro_golden
*CAP
1 io_in[2] 0.000167227
2 *419:io_in[2] 0.000209438
3 *23:16 0.0432496
4 *23:15 0.0430401
5 *23:13 0.0734431
6 *23:11 0.0736104
7 *419:io_in[2] *59:9 0.000319355
8 *23:16 *61:8 0.104176
*RES
1 io_in[2] *23:11 2.115 
2 *23:11 *23:13 550.35 
3 *23:13 *23:15 4.5 
4 *23:15 *23:16 597.51 
5 *23:16 *419:io_in[2] 10.935 
*END

*D_NET *24 0.215334
*CONN
*P io_in[30] I
*I *419:io_in[30] I *D macro_golden
*CAP
1 io_in[30] 0.000113196
2 *419:io_in[30] 0.000664253
3 *24:16 0.0250921
4 *24:15 0.0244278
5 *24:13 0.0738719
6 *24:11 0.0739851
7 *419:io_in[30] *98:8 0.000606119
8 *419:io_in[30] *102:11 0.000465162
9 *24:13 *419:la_data_in[18] 0
10 *24:13 *419:la_data_in[27] 0
11 *24:13 *115:16 0.00250419
12 *24:13 *120:16 0
13 *24:13 *141:14 0.00314329
14 *24:13 *149:16 0
15 *24:13 *177:14 0
16 *24:13 *276:16 0.00941606
17 *24:13 *316:16 0
18 *24:13 *322:12 0
19 *24:13 *341:12 0
20 *24:13 *346:16 0
21 *24:13 *369:16 0.00104484
*RES
1 io_in[30] *24:11 1.395 
2 *24:11 *24:13 598.95 
3 *24:13 *24:15 4.5 
4 *24:15 *24:16 197.1 
5 *24:16 *419:io_in[30] 15.165 
*END

*D_NET *25 0.235096
*CONN
*P io_in[31] I
*I *419:io_in[31] I *D macro_golden
*CAP
1 io_in[31] 0.00177706
2 *419:io_in[31] 0.000148315
3 *25:12 0.035554
4 *25:11 0.0354057
5 *25:9 0.0795743
6 *25:7 0.0813514
7 *25:9 *362:14 0
8 *25:9 *417:16 0
9 *25:12 *283:17 0.00128545
*RES
1 io_in[31] *25:7 13.185 
2 *25:7 *25:9 594.36 
3 *25:9 *25:11 4.5 
4 *25:11 *25:12 268.11 
5 *25:12 *419:io_in[31] 10.125 
*END

*D_NET *26 0.276437
*CONN
*P io_in[32] I
*I *419:io_in[32] I *D macro_golden
*CAP
1 io_in[32] 0.000323383
2 *419:io_in[32] 0
3 *26:16 0.0235548
4 *26:15 0.0235548
5 *26:13 0.0823565
6 *26:11 0.0826799
7 *26:16 *64:11 0.0637065
8 *26:16 *138:13 0.000261242
*RES
1 io_in[32] *26:11 3.015 
2 *26:11 *26:13 615.33 
3 *26:13 *26:15 4.5 
4 *26:15 *26:16 337.95 
5 *26:16 *419:io_in[32] 9 
*END

*D_NET *27 0.33329
*CONN
*P io_in[33] I
*I *419:io_in[33] I *D macro_golden
*CAP
1 io_in[33] 0.000242542
2 *419:io_in[33] 0.000224235
3 *27:16 0.0524911
4 *27:15 0.0522669
5 *27:13 0.0703862
6 *27:11 0.0706287
7 *27:13 *34:9 0.0767547
8 *27:16 *225:11 0.00153103
9 *27:16 *289:11 0.0086677
10 *2:11 *419:io_in[33] 9.66696e-05
*RES
1 io_in[33] *27:11 2.475 
2 *27:11 *27:13 620.55 
3 *27:13 *27:15 4.5 
4 *27:15 *27:16 405.81 
5 *27:16 *419:io_in[33] 10.935 
*END

*D_NET *28 0.30389
*CONN
*P io_in[34] I
*I *419:io_in[34] I *D macro_golden
*CAP
1 io_in[34] 0.000177869
2 *419:io_in[34] 0.000102352
3 *28:16 0.0608163
4 *28:15 0.060714
5 *28:13 0.0839478
6 *28:11 0.0841257
7 *28:16 *228:9 0.00220881
8 *28:16 *292:17 0.0117973
*RES
1 io_in[34] *28:11 1.935 
2 *28:11 *28:13 628.65 
3 *28:13 *28:15 4.5 
4 *28:15 *28:16 473.31 
5 *28:16 *419:io_in[34] 9.765 
*END

*D_NET *29 0.344242
*CONN
*P io_in[35] I
*I *419:io_in[35] I *D macro_golden
*CAP
1 io_in[35] 0.000113196
2 *419:io_in[35] 0.000224235
3 *29:16 0.0397756
4 *29:15 0.0395514
5 *29:13 0.0846335
6 *29:11 0.0847466
7 *29:16 *104:8 0.0931547
8 *29:16 *294:17 0.00194567
9 *2:11 *419:io_in[35] 9.66696e-05
*RES
1 io_in[35] *29:11 1.395 
2 *29:11 *29:13 634.59 
3 *29:13 *29:15 4.5 
4 *29:15 *29:16 540.81 
5 *29:16 *419:io_in[35] 10.935 
*END

*D_NET *30 0.439132
*CONN
*P io_in[36] I
*I *419:io_in[36] I *D macro_golden
*CAP
1 io_in[36] 0.00177706
2 *419:io_in[36] 0.000186182
3 *30:12 0.132851
4 *30:11 0.132664
5 *30:9 0.0838528
6 *30:7 0.0856298
7 *30:12 *233:9 0.00170644
8 *30:12 *297:17 0.000438856
9 *2:11 *419:io_in[36] 2.58505e-05
*RES
1 io_in[36] *30:7 13.185 
2 *30:7 *30:9 629.28 
3 *30:9 *30:11 4.5 
4 *30:11 *30:12 608.31 
5 *30:12 *419:io_in[36] 10.395 
*END

*D_NET *31 0.393008
*CONN
*P io_in[37] I
*I *419:io_in[37] I *D macro_golden
*CAP
1 io_in[37] 0.000323383
2 *419:io_in[37] 0
3 *31:16 0.045706
4 *31:15 0.045706
5 *31:13 0.0866111
6 *31:11 0.0869345
7 *31:16 *69:11 0.127727
*RES
1 io_in[37] *31:11 3.015 
2 *31:11 *31:13 650.43 
3 *31:13 *31:15 4.5 
4 *31:15 *31:16 678.15 
5 *31:16 *419:io_in[37] 9 
*END

*D_NET *32 0.282049
*CONN
*P io_in[3] I
*I *419:io_in[3] I *D macro_golden
*CAP
1 io_in[3] 0.0726907
2 *419:io_in[3] 0.000102358
3 *32:8 0.0677105
4 *32:7 0.0676082
5 *32:5 0.0726907
6 *32:8 *419:wbs_dat_i[7] 0.00124624
*RES
1 io_in[3] *32:5 544.365 
2 *32:5 *32:7 4.5 
3 *32:7 *32:8 532.71 
4 *32:8 *419:io_in[3] 9.765 
*END

*D_NET *33 0.266271
*CONN
*P io_in[4] I
*I *419:io_in[4] I *D macro_golden
*CAP
1 io_in[4] 0.0002319
2 *419:io_in[4] 0.000209438
3 *33:16 0.0607922
4 *33:15 0.0605827
5 *33:13 0.0716923
6 *33:11 0.0719242
7 *419:io_in[4] *59:9 0.000319355
8 *33:16 *419:wbs_dat_i[9] 0.000518887
*RES
1 io_in[4] *33:11 2.655 
2 *33:11 *33:13 536.31 
3 *33:13 *33:15 4.5 
4 *33:15 *33:16 470.61 
5 *33:16 *419:io_in[4] 10.935 
*END
