*SPEF "ieee 1481-1999"
*DESIGN "user_project_wrapper"
*DATE "11:11:11 Fri 11 11, 1111"
*VENDOR "OpenRCX"
*PROGRAM "Parallel Extraction"
*VERSION "1.0"
*DESIGN_FLOW "NAME_SCOPE LOCAL" "PIN_CAP NONE"
*DIVIDER /
*DELIMITER :
*BUS_DELIMITER []
*T_UNIT 1 NS
*C_UNIT 1 PF
*R_UNIT 1 OHM
*L_UNIT 1 HENRY

*NAME_MAP
*1 io_in[0]
*2 io_in[10]
*3 io_in[11]
*4 io_in[12]
*5 io_in[13]
*6 io_in[14]
*7 io_in[15]
*8 io_in[16]
*9 io_in[17]
*10 io_in[18]
*11 io_in[19]
*12 io_in[1]
*13 io_in[20]
*14 io_in[21]
*15 io_in[22]
*16 io_in[23]
*17 io_in[24]
*18 io_in[25]
*19 io_in[26]
*20 io_in[27]
*21 io_in[28]
*22 io_in[29]
*23 io_in[2]
*24 io_in[30]
*25 io_in[31]
*26 io_in[32]
*27 io_in[33]
*28 io_in[34]
*29 io_in[35]
*30 io_in[36]
*31 io_in[37]
*32 io_in[3]
*33 io_in[4]
*34 io_in[5]
*35 io_in[6]
*36 io_in[7]
*37 io_in[8]
*38 io_in[9]
*39 io_oeb[0]
*40 io_oeb[10]
*41 io_oeb[11]
*42 io_oeb[12]
*43 io_oeb[13]
*44 io_oeb[14]
*45 io_oeb[15]
*46 io_oeb[16]
*47 io_oeb[17]
*48 io_oeb[18]
*49 io_oeb[19]
*50 io_oeb[1]
*51 io_oeb[20]
*52 io_oeb[21]
*53 io_oeb[22]
*54 io_oeb[23]
*55 io_oeb[24]
*56 io_oeb[25]
*57 io_oeb[26]
*58 io_oeb[27]
*59 io_oeb[28]
*60 io_oeb[29]
*61 io_oeb[2]
*62 io_oeb[30]
*63 io_oeb[31]
*64 io_oeb[32]
*65 io_oeb[33]
*66 io_oeb[34]
*67 io_oeb[35]
*68 io_oeb[36]
*69 io_oeb[37]
*70 io_oeb[3]
*71 io_oeb[4]
*72 io_oeb[5]
*73 io_oeb[6]
*74 io_oeb[7]
*75 io_oeb[8]
*76 io_oeb[9]
*77 io_out[0]
*78 io_out[10]
*79 io_out[11]
*80 io_out[12]
*81 io_out[13]
*82 io_out[14]
*83 io_out[15]
*84 io_out[16]
*85 io_out[17]
*86 io_out[18]
*87 io_out[19]
*88 io_out[1]
*89 io_out[20]
*90 io_out[21]
*91 io_out[22]
*92 io_out[23]
*93 io_out[24]
*94 io_out[25]
*95 io_out[26]
*96 io_out[27]
*97 io_out[28]
*98 io_out[29]
*99 io_out[2]
*100 io_out[30]
*101 io_out[31]
*102 io_out[32]
*103 io_out[33]
*104 io_out[34]
*105 io_out[35]
*106 io_out[36]
*107 io_out[37]
*108 io_out[3]
*109 io_out[4]
*110 io_out[5]
*111 io_out[6]
*112 io_out[7]
*113 io_out[8]
*114 io_out[9]
*115 la_data_in[0]
*116 la_data_in[10]
*117 la_data_in[11]
*118 la_data_in[12]
*119 la_data_in[13]
*120 la_data_in[14]
*121 la_data_in[15]
*122 la_data_in[16]
*123 la_data_in[17]
*124 la_data_in[18]
*125 la_data_in[19]
*126 la_data_in[1]
*127 la_data_in[20]
*128 la_data_in[21]
*129 la_data_in[22]
*130 la_data_in[23]
*131 la_data_in[24]
*132 la_data_in[25]
*133 la_data_in[26]
*134 la_data_in[27]
*135 la_data_in[28]
*136 la_data_in[29]
*137 la_data_in[2]
*138 la_data_in[30]
*139 la_data_in[31]
*140 la_data_in[32]
*141 la_data_in[33]
*142 la_data_in[34]
*143 la_data_in[35]
*144 la_data_in[36]
*145 la_data_in[37]
*146 la_data_in[38]
*147 la_data_in[39]
*148 la_data_in[3]
*149 la_data_in[40]
*150 la_data_in[41]
*151 la_data_in[42]
*152 la_data_in[43]
*153 la_data_in[44]
*154 la_data_in[45]
*155 la_data_in[46]
*156 la_data_in[47]
*157 la_data_in[48]
*158 la_data_in[49]
*159 la_data_in[4]
*160 la_data_in[50]
*161 la_data_in[51]
*162 la_data_in[52]
*163 la_data_in[53]
*164 la_data_in[54]
*165 la_data_in[55]
*166 la_data_in[56]
*167 la_data_in[57]
*168 la_data_in[58]
*169 la_data_in[59]
*170 la_data_in[5]
*171 la_data_in[60]
*172 la_data_in[61]
*173 la_data_in[62]
*174 la_data_in[63]
*175 la_data_in[6]
*176 la_data_in[7]
*177 la_data_in[8]
*178 la_data_in[9]
*179 la_data_out[0]
*180 la_data_out[10]
*181 la_data_out[11]
*182 la_data_out[12]
*183 la_data_out[13]
*184 la_data_out[14]
*185 la_data_out[15]
*186 la_data_out[16]
*187 la_data_out[17]
*188 la_data_out[18]
*189 la_data_out[19]
*190 la_data_out[1]
*191 la_data_out[20]
*192 la_data_out[21]
*193 la_data_out[22]
*194 la_data_out[23]
*195 la_data_out[24]
*196 la_data_out[25]
*197 la_data_out[26]
*198 la_data_out[27]
*199 la_data_out[28]
*200 la_data_out[29]
*201 la_data_out[2]
*202 la_data_out[30]
*203 la_data_out[31]
*204 la_data_out[32]
*205 la_data_out[33]
*206 la_data_out[34]
*207 la_data_out[35]
*208 la_data_out[36]
*209 la_data_out[37]
*210 la_data_out[38]
*211 la_data_out[39]
*212 la_data_out[3]
*213 la_data_out[40]
*214 la_data_out[41]
*215 la_data_out[42]
*216 la_data_out[43]
*217 la_data_out[44]
*218 la_data_out[45]
*219 la_data_out[46]
*220 la_data_out[47]
*221 la_data_out[48]
*222 la_data_out[49]
*223 la_data_out[4]
*224 la_data_out[50]
*225 la_data_out[51]
*226 la_data_out[52]
*227 la_data_out[53]
*228 la_data_out[54]
*229 la_data_out[55]
*230 la_data_out[56]
*231 la_data_out[57]
*232 la_data_out[58]
*233 la_data_out[59]
*234 la_data_out[5]
*235 la_data_out[60]
*236 la_data_out[61]
*237 la_data_out[62]
*238 la_data_out[63]
*239 la_data_out[6]
*240 la_data_out[7]
*241 la_data_out[8]
*242 la_data_out[9]
*243 la_oenb[0]
*244 la_oenb[10]
*245 la_oenb[11]
*246 la_oenb[12]
*247 la_oenb[13]
*248 la_oenb[14]
*249 la_oenb[15]
*250 la_oenb[16]
*251 la_oenb[17]
*252 la_oenb[18]
*253 la_oenb[19]
*254 la_oenb[1]
*255 la_oenb[20]
*256 la_oenb[21]
*257 la_oenb[22]
*258 la_oenb[23]
*259 la_oenb[24]
*260 la_oenb[25]
*261 la_oenb[26]
*262 la_oenb[27]
*263 la_oenb[28]
*264 la_oenb[29]
*265 la_oenb[2]
*266 la_oenb[30]
*267 la_oenb[31]
*268 la_oenb[32]
*269 la_oenb[33]
*270 la_oenb[34]
*271 la_oenb[35]
*272 la_oenb[36]
*273 la_oenb[37]
*274 la_oenb[38]
*275 la_oenb[39]
*276 la_oenb[3]
*277 la_oenb[40]
*278 la_oenb[41]
*279 la_oenb[42]
*280 la_oenb[43]
*281 la_oenb[44]
*282 la_oenb[45]
*283 la_oenb[46]
*284 la_oenb[47]
*285 la_oenb[48]
*286 la_oenb[49]
*287 la_oenb[4]
*288 la_oenb[50]
*289 la_oenb[51]
*290 la_oenb[52]
*291 la_oenb[53]
*292 la_oenb[54]
*293 la_oenb[55]
*294 la_oenb[56]
*295 la_oenb[57]
*296 la_oenb[58]
*297 la_oenb[59]
*298 la_oenb[5]
*299 la_oenb[60]
*300 la_oenb[61]
*301 la_oenb[62]
*302 la_oenb[63]
*303 la_oenb[6]
*304 la_oenb[7]
*305 la_oenb[8]
*306 la_oenb[9]
*307 user_clock2
*308 user_irq[0]
*309 user_irq[1]
*310 user_irq[2]
*313 wb_clk_i
*314 wb_rst_i
*315 wbs_ack_o
*316 wbs_adr_i[0]
*317 wbs_adr_i[10]
*318 wbs_adr_i[11]
*319 wbs_adr_i[12]
*320 wbs_adr_i[13]
*321 wbs_adr_i[14]
*322 wbs_adr_i[15]
*323 wbs_adr_i[16]
*324 wbs_adr_i[17]
*325 wbs_adr_i[18]
*326 wbs_adr_i[19]
*327 wbs_adr_i[1]
*328 wbs_adr_i[20]
*329 wbs_adr_i[21]
*330 wbs_adr_i[22]
*331 wbs_adr_i[23]
*332 wbs_adr_i[24]
*333 wbs_adr_i[25]
*334 wbs_adr_i[26]
*335 wbs_adr_i[27]
*336 wbs_adr_i[28]
*337 wbs_adr_i[29]
*338 wbs_adr_i[2]
*339 wbs_adr_i[30]
*340 wbs_adr_i[31]
*341 wbs_adr_i[3]
*342 wbs_adr_i[4]
*343 wbs_adr_i[5]
*344 wbs_adr_i[6]
*345 wbs_adr_i[7]
*346 wbs_adr_i[8]
*347 wbs_adr_i[9]
*348 wbs_cyc_i
*349 wbs_dat_i[0]
*350 wbs_dat_i[10]
*351 wbs_dat_i[11]
*352 wbs_dat_i[12]
*353 wbs_dat_i[13]
*354 wbs_dat_i[14]
*355 wbs_dat_i[15]
*356 wbs_dat_i[16]
*357 wbs_dat_i[17]
*358 wbs_dat_i[18]
*359 wbs_dat_i[19]
*360 wbs_dat_i[1]
*361 wbs_dat_i[20]
*362 wbs_dat_i[21]
*363 wbs_dat_i[22]
*364 wbs_dat_i[23]
*365 wbs_dat_i[24]
*366 wbs_dat_i[25]
*367 wbs_dat_i[26]
*368 wbs_dat_i[27]
*369 wbs_dat_i[28]
*370 wbs_dat_i[29]
*371 wbs_dat_i[2]
*372 wbs_dat_i[30]
*373 wbs_dat_i[31]
*374 wbs_dat_i[3]
*375 wbs_dat_i[4]
*376 wbs_dat_i[5]
*377 wbs_dat_i[6]
*378 wbs_dat_i[7]
*379 wbs_dat_i[8]
*380 wbs_dat_i[9]
*381 wbs_dat_o[0]
*382 wbs_dat_o[10]
*383 wbs_dat_o[11]
*384 wbs_dat_o[12]
*385 wbs_dat_o[13]
*386 wbs_dat_o[14]
*387 wbs_dat_o[15]
*388 wbs_dat_o[16]
*389 wbs_dat_o[17]
*390 wbs_dat_o[18]
*391 wbs_dat_o[19]
*392 wbs_dat_o[1]
*393 wbs_dat_o[20]
*394 wbs_dat_o[21]
*395 wbs_dat_o[22]
*396 wbs_dat_o[23]
*397 wbs_dat_o[24]
*398 wbs_dat_o[25]
*399 wbs_dat_o[26]
*400 wbs_dat_o[27]
*401 wbs_dat_o[28]
*402 wbs_dat_o[29]
*403 wbs_dat_o[2]
*404 wbs_dat_o[30]
*405 wbs_dat_o[31]
*406 wbs_dat_o[3]
*407 wbs_dat_o[4]
*408 wbs_dat_o[5]
*409 wbs_dat_o[6]
*410 wbs_dat_o[7]
*411 wbs_dat_o[8]
*412 wbs_dat_o[9]
*413 wbs_sel_i[0]
*414 wbs_sel_i[1]
*415 wbs_sel_i[2]
*416 wbs_sel_i[3]
*417 wbs_stb_i
*418 wbs_we_i
*419 u_macro_golden

*PORTS
io_in[0] I
io_in[10] I
io_in[11] I
io_in[12] I
io_in[13] I
io_in[14] I
io_in[15] I
io_in[16] I
io_in[17] I
io_in[18] I
io_in[19] I
io_in[1] I
io_in[20] I
io_in[21] I
io_in[22] I
io_in[23] I
io_in[24] I
io_in[25] I
io_in[26] I
io_in[27] I
io_in[28] I
io_in[29] I
io_in[2] I
io_in[30] I
io_in[31] I
io_in[32] I
io_in[33] I
io_in[34] I
io_in[35] I
io_in[36] I
io_in[37] I
io_in[3] I
io_in[4] I
io_in[5] I
io_in[6] I
io_in[7] I
io_in[8] I
io_in[9] I
io_oeb[0] O
io_oeb[10] O
io_oeb[11] O
io_oeb[12] O
io_oeb[13] O
io_oeb[14] O
io_oeb[15] O
io_oeb[16] O
io_oeb[17] O
io_oeb[18] O
io_oeb[19] O
io_oeb[1] O
io_oeb[20] O
io_oeb[21] O
io_oeb[22] O
io_oeb[23] O
io_oeb[24] O
io_oeb[25] O
io_oeb[26] O
io_oeb[27] O
io_oeb[28] O
io_oeb[29] O
io_oeb[2] O
io_oeb[30] O
io_oeb[31] O
io_oeb[32] O
io_oeb[33] O
io_oeb[34] O
io_oeb[35] O
io_oeb[36] O
io_oeb[37] O
io_oeb[3] O
io_oeb[4] O
io_oeb[5] O
io_oeb[6] O
io_oeb[7] O
io_oeb[8] O
io_oeb[9] O
io_out[0] O
io_out[10] O
io_out[11] O
io_out[12] O
io_out[13] O
io_out[14] O
io_out[15] O
io_out[16] O
io_out[17] O
io_out[18] O
io_out[19] O
io_out[1] O
io_out[20] O
io_out[21] O
io_out[22] O
io_out[23] O
io_out[24] O
io_out[25] O
io_out[26] O
io_out[27] O
io_out[28] O
io_out[29] O
io_out[2] O
io_out[30] O
io_out[31] O
io_out[32] O
io_out[33] O
io_out[34] O
io_out[35] O
io_out[36] O
io_out[37] O
io_out[3] O
io_out[4] O
io_out[5] O
io_out[6] O
io_out[7] O
io_out[8] O
io_out[9] O
la_data_in[0] I
la_data_in[10] I
la_data_in[11] I
la_data_in[12] I
la_data_in[13] I
la_data_in[14] I
la_data_in[15] I
la_data_in[16] I
la_data_in[17] I
la_data_in[18] I
la_data_in[19] I
la_data_in[1] I
la_data_in[20] I
la_data_in[21] I
la_data_in[22] I
la_data_in[23] I
la_data_in[24] I
la_data_in[25] I
la_data_in[26] I
la_data_in[27] I
la_data_in[28] I
la_data_in[29] I
la_data_in[2] I
la_data_in[30] I
la_data_in[31] I
la_data_in[32] I
la_data_in[33] I
la_data_in[34] I
la_data_in[35] I
la_data_in[36] I
la_data_in[37] I
la_data_in[38] I
la_data_in[39] I
la_data_in[3] I
la_data_in[40] I
la_data_in[41] I
la_data_in[42] I
la_data_in[43] I
la_data_in[44] I
la_data_in[45] I
la_data_in[46] I
la_data_in[47] I
la_data_in[48] I
la_data_in[49] I
la_data_in[4] I
la_data_in[50] I
la_data_in[51] I
la_data_in[52] I
la_data_in[53] I
la_data_in[54] I
la_data_in[55] I
la_data_in[56] I
la_data_in[57] I
la_data_in[58] I
la_data_in[59] I
la_data_in[5] I
la_data_in[60] I
la_data_in[61] I
la_data_in[62] I
la_data_in[63] I
la_data_in[6] I
la_data_in[7] I
la_data_in[8] I
la_data_in[9] I
la_data_out[0] O
la_data_out[10] O
la_data_out[11] O
la_data_out[12] O
la_data_out[13] O
la_data_out[14] O
la_data_out[15] O
la_data_out[16] O
la_data_out[17] O
la_data_out[18] O
la_data_out[19] O
la_data_out[1] O
la_data_out[20] O
la_data_out[21] O
la_data_out[22] O
la_data_out[23] O
la_data_out[24] O
la_data_out[25] O
la_data_out[26] O
la_data_out[27] O
la_data_out[28] O
la_data_out[29] O
la_data_out[2] O
la_data_out[30] O
la_data_out[31] O
la_data_out[32] O
la_data_out[33] O
la_data_out[34] O
la_data_out[35] O
la_data_out[36] O
la_data_out[37] O
la_data_out[38] O
la_data_out[39] O
la_data_out[3] O
la_data_out[40] O
la_data_out[41] O
la_data_out[42] O
la_data_out[43] O
la_data_out[44] O
la_data_out[45] O
la_data_out[46] O
la_data_out[47] O
la_data_out[48] O
la_data_out[49] O
la_data_out[4] O
la_data_out[50] O
la_data_out[51] O
la_data_out[52] O
la_data_out[53] O
la_data_out[54] O
la_data_out[55] O
la_data_out[56] O
la_data_out[57] O
la_data_out[58] O
la_data_out[59] O
la_data_out[5] O
la_data_out[60] O
la_data_out[61] O
la_data_out[62] O
la_data_out[63] O
la_data_out[6] O
la_data_out[7] O
la_data_out[8] O
la_data_out[9] O
la_oenb[0] I
la_oenb[10] I
la_oenb[11] I
la_oenb[12] I
la_oenb[13] I
la_oenb[14] I
la_oenb[15] I
la_oenb[16] I
la_oenb[17] I
la_oenb[18] I
la_oenb[19] I
la_oenb[1] I
la_oenb[20] I
la_oenb[21] I
la_oenb[22] I
la_oenb[23] I
la_oenb[24] I
la_oenb[25] I
la_oenb[26] I
la_oenb[27] I
la_oenb[28] I
la_oenb[29] I
la_oenb[2] I
la_oenb[30] I
la_oenb[31] I
la_oenb[32] I
la_oenb[33] I
la_oenb[34] I
la_oenb[35] I
la_oenb[36] I
la_oenb[37] I
la_oenb[38] I
la_oenb[39] I
la_oenb[3] I
la_oenb[40] I
la_oenb[41] I
la_oenb[42] I
la_oenb[43] I
la_oenb[44] I
la_oenb[45] I
la_oenb[46] I
la_oenb[47] I
la_oenb[48] I
la_oenb[49] I
la_oenb[4] I
la_oenb[50] I
la_oenb[51] I
la_oenb[52] I
la_oenb[53] I
la_oenb[54] I
la_oenb[55] I
la_oenb[56] I
la_oenb[57] I
la_oenb[58] I
la_oenb[59] I
la_oenb[5] I
la_oenb[60] I
la_oenb[61] I
la_oenb[62] I
la_oenb[63] I
la_oenb[6] I
la_oenb[7] I
la_oenb[8] I
la_oenb[9] I
user_clock2 I
user_irq[0] O
user_irq[1] O
user_irq[2] O
wb_clk_i I
wb_rst_i I
wbs_ack_o O
wbs_adr_i[0] I
wbs_adr_i[10] I
wbs_adr_i[11] I
wbs_adr_i[12] I
wbs_adr_i[13] I
wbs_adr_i[14] I
wbs_adr_i[15] I
wbs_adr_i[16] I
wbs_adr_i[17] I
wbs_adr_i[18] I
wbs_adr_i[19] I
wbs_adr_i[1] I
wbs_adr_i[20] I
wbs_adr_i[21] I
wbs_adr_i[22] I
wbs_adr_i[23] I
wbs_adr_i[24] I
wbs_adr_i[25] I
wbs_adr_i[26] I
wbs_adr_i[27] I
wbs_adr_i[28] I
wbs_adr_i[29] I
wbs_adr_i[2] I
wbs_adr_i[30] I
wbs_adr_i[31] I
wbs_adr_i[3] I
wbs_adr_i[4] I
wbs_adr_i[5] I
wbs_adr_i[6] I
wbs_adr_i[7] I
wbs_adr_i[8] I
wbs_adr_i[9] I
wbs_cyc_i I
wbs_dat_i[0] I
wbs_dat_i[10] I
wbs_dat_i[11] I
wbs_dat_i[12] I
wbs_dat_i[13] I
wbs_dat_i[14] I
wbs_dat_i[15] I
wbs_dat_i[16] I
wbs_dat_i[17] I
wbs_dat_i[18] I
wbs_dat_i[19] I
wbs_dat_i[1] I
wbs_dat_i[20] I
wbs_dat_i[21] I
wbs_dat_i[22] I
wbs_dat_i[23] I
wbs_dat_i[24] I
wbs_dat_i[25] I
wbs_dat_i[26] I
wbs_dat_i[27] I
wbs_dat_i[28] I
wbs_dat_i[29] I
wbs_dat_i[2] I
wbs_dat_i[30] I
wbs_dat_i[31] I
wbs_dat_i[3] I
wbs_dat_i[4] I
wbs_dat_i[5] I
wbs_dat_i[6] I
wbs_dat_i[7] I
wbs_dat_i[8] I
wbs_dat_i[9] I
wbs_dat_o[0] O
wbs_dat_o[10] O
wbs_dat_o[11] O
wbs_dat_o[12] O
wbs_dat_o[13] O
wbs_dat_o[14] O
wbs_dat_o[15] O
wbs_dat_o[16] O
wbs_dat_o[17] O
wbs_dat_o[18] O
wbs_dat_o[19] O
wbs_dat_o[1] O
wbs_dat_o[20] O
wbs_dat_o[21] O
wbs_dat_o[22] O
wbs_dat_o[23] O
wbs_dat_o[24] O
wbs_dat_o[25] O
wbs_dat_o[26] O
wbs_dat_o[27] O
wbs_dat_o[28] O
wbs_dat_o[29] O
wbs_dat_o[2] O
wbs_dat_o[30] O
wbs_dat_o[31] O
wbs_dat_o[3] O
wbs_dat_o[4] O
wbs_dat_o[5] O
wbs_dat_o[6] O
wbs_dat_o[7] O
wbs_dat_o[8] O
wbs_dat_o[9] O
wbs_sel_i[0] I
wbs_sel_i[1] I
wbs_sel_i[2] I
wbs_sel_i[3] I
wbs_stb_i I
wbs_we_i I

*D_NET *1 0.431625
*CONN
*P io_in[0] I
*I *419:io_in[0] I *D macro_golden
*CAP
1 io_in[0] 0.00051408
2 *419:io_in[0] 0.00256414
3 *1:11 0.10982
4 *1:10 0.107256
5 *1:8 0.0275257
6 *1:7 0.0280398
7 *1:8 *39:11 0.00138629
8 *1:8 *40:11 0
9 *1:8 *50:11 0.000163476
10 *1:8 *77:11 0.138865
11 *1:11 *22:19 0.00946235
12 *1:11 *40:8 0
13 *1:11 *45:8 0
14 *1:11 *49:10 0.000895822
15 *1:11 *55:8 0
16 *1:11 *89:14 0.00513295
17 *1:11 *111:10 0
*RES
1 io_in[0] *1:7 8.685 
2 *1:7 *1:8 390.69 
3 *1:8 *1:10 4.5 
4 *1:10 *1:11 884.61 
5 *1:11 *419:io_in[0] 22.635 
*END

*D_NET *2 0.629552
*CONN
*P io_in[10] I
*I *419:io_in[10] I *D macro_golden
*CAP
1 io_in[10] 0.000320061
2 *419:io_in[10] 0.00394526
3 *2:11 0.0734124
4 *2:10 0.0694671
5 *2:8 0.00428993
6 *2:7 0.00460999
7 *419:io_in[10] *40:7 0
8 *419:io_in[10] *114:7 0
9 *2:8 *38:8 0.0680769
10 *2:8 *40:11 0.0931219
11 *2:11 *4:11 0.311458
12 *2:11 *59:8 0.000851136
*RES
1 io_in[10] *2:7 7.065 
2 *2:7 *2:8 236.97 
3 *2:8 *2:10 4.5 
4 *2:10 *2:11 836.37 
5 *2:11 *419:io_in[10] 30.645 
*END

*D_NET *3 0.470961
*CONN
*P io_in[11] I
*I *419:io_in[11] I *D macro_golden
*CAP
1 io_in[11] 0.000363176
2 *419:io_in[11] 0.00512357
3 *3:11 0.106592
4 *3:10 0.101469
5 *3:8 0.00175635
6 *3:7 0.00211953
7 *419:io_in[11] *41:7 0
8 *419:io_in[11] *78:7 0
9 *3:8 *4:8 0.000607699
10 *3:8 *7:11 0.0014396
11 *3:8 *40:11 0.107778
12 *3:8 *41:11 0.110746
13 *3:11 *76:8 0.0329661
*RES
1 io_in[11] *3:7 7.425 
2 *3:7 *3:8 295.29 
3 *3:8 *3:10 4.5 
4 *3:10 *3:11 831.15 
5 *3:11 *419:io_in[11] 36.045 
*END

*D_NET *4 0.740114
*CONN
*P io_in[12] I
*I *419:io_in[12] I *D macro_golden
*CAP
1 io_in[12] 0.000445021
2 *419:io_in[12] 0.00400019
3 *4:11 0.0674852
4 *4:10 0.0634851
5 *4:8 0.000859447
6 *4:7 0.00130447
7 *419:io_in[12] *42:5 0
8 *419:io_in[12] *79:7 0
9 *4:8 *5:8 0.00236254
10 *4:8 *7:11 0.138991
11 *4:8 *40:11 0.000417339
12 *4:8 *42:11 0.134747
13 *4:8 *43:11 0.000906842
14 *4:11 *59:8 0.0124834
15 *4:11 *60:8 0.000443051
16 *4:11 *100:10 0.000118423
17 *4:11 *111:14 0
18 *2:11 *4:11 0.311458
19 *3:8 *4:8 0.000607699
*RES
1 io_in[12] *4:7 7.965 
2 *4:7 *4:8 364.23 
3 *4:8 *4:10 4.5 
4 *4:10 *4:11 825.75 
5 *4:11 *419:io_in[12] 30.825 
*END

*D_NET *5 0.579925
*CONN
*P io_in[13] I
*I *419:io_in[13] I *D macro_golden
*CAP
1 io_in[13] 0.000488121
2 *419:io_in[13] 0.00455747
3 *5:11 0.101642
4 *5:10 0.0970847
5 *5:8 0.000816599
6 *5:7 0.00130472
7 *419:io_in[13] *43:7 0
8 *419:io_in[13] *74:11 0.00146363
9 *419:io_in[13] *80:7 0
10 *5:8 *7:11 0.00250135
11 *5:8 *42:11 0.151451
12 *5:8 *43:11 0.165091
13 *5:11 *78:8 0.0506483
14 *5:11 *79:8 0.00051403
15 *4:8 *5:8 0.00236254
*RES
1 io_in[13] *5:7 8.325 
2 *5:7 *5:8 420.03 
3 *5:8 *5:10 4.5 
4 *5:10 *5:11 820.53 
5 *5:11 *419:io_in[13] 38.745 
*END

*D_NET *6 0.493468
*CONN
*P io_in[14] I
*I *419:io_in[14] I *D macro_golden
*CAP
1 io_in[14] 0.000661499
2 *419:io_in[14] 0.00437795
3 *6:11 0.103384
4 *6:10 0.0990062
5 *6:8 0.0327167
6 *6:7 0.0333782
7 *419:io_in[14] *44:5 0
8 *6:8 *7:11 0.00137213
9 *6:8 *43:11 0.183904
10 *6:11 *75:8 0.0346668
11 *6:11 *111:14 0
*RES
1 io_in[14] *6:7 8.685 
2 *6:7 *6:8 489.15 
3 *6:8 *6:10 4.5 
4 *6:10 *6:11 815.31 
5 *6:11 *419:io_in[14] 33.345 
*END

*D_NET *7 0.583758
*CONN
*P io_in[15] I
*I *419:io_in[15] I *D macro_golden
*CAP
1 io_in[15] 0.00286183
2 *419:io_in[15] 0.0050613
3 *7:14 0.102037
4 *7:13 0.0969758
5 *7:11 0.0187677
6 *7:10 0.0216295
7 *419:io_in[15] *18:16 0
8 *419:io_in[15] *45:7 0
9 *419:io_in[15] *82:5 0
10 *419:io_in[15] *111:13 0.0015702
11 *7:11 *41:11 0.127465
12 *7:11 *42:11 0.00753363
13 *7:11 *43:11 0.00349417
14 *7:14 *63:8 0
15 *7:14 *80:8 0.0520581
16 *3:8 *7:11 0.0014396
17 *4:8 *7:11 0.138991
18 *5:8 *7:11 0.00250135
19 *6:8 *7:11 0.00137213
*RES
1 io_in[15] *7:10 31.995 
2 *7:10 *7:11 526.05 
3 *7:11 *7:13 4.5 
4 *7:13 *7:14 811.35 
5 *7:14 *419:io_in[15] 41.445 
*END

*D_NET *8 0.326867
*CONN
*P io_in[16] I
*I *419:io_in[16] I *D macro_golden
*CAP
1 io_in[16] 0.000247817
2 *419:io_in[16] 0.0151791
3 *8:18 0.0151791
4 *8:16 0.0878948
5 *8:15 0.0878948
6 *8:13 0.0599874
7 *8:11 0.0602352
8 *419:io_in[16] *83:7 0
9 *419:io_in[16] *109:16 0.000249091
*RES
1 io_in[16] *8:11 2.655 
2 *8:11 *8:13 461.97 
3 *8:13 *8:15 4.5 
4 *8:15 *8:16 684.09 
5 *8:16 *8:18 4.5 
6 *8:18 *419:io_in[16] 109.845 
*END

*D_NET *9 0.33385
*CONN
*P io_in[17] I
*I *419:io_in[17] I *D macro_golden
*CAP
1 io_in[17] 0.0013584
2 *419:io_in[17] 0.00637473
3 *9:14 0.0720167
4 *9:13 0.065642
5 *9:11 0.0677013
6 *9:10 0.0690597
7 *419:io_in[17] *46:11 0
8 *419:io_in[17] *84:10 0.000594746
9 *9:10 *83:14 0.000181847
10 *9:14 *114:8 0.0509204
*RES
1 io_in[17] *9:10 19.935 
2 *9:10 *9:11 520.65 
3 *9:11 *9:13 4.5 
4 *9:13 *9:14 573.75 
5 *9:14 *419:io_in[17] 48.195 
*END

*D_NET *10 0.271189
*CONN
*P io_in[18] I
*I *419:io_in[18] I *D macro_golden
*CAP
1 io_in[18] 0.00143099
2 *419:io_in[18] 0.0144543
3 *10:16 0.0144543
4 *10:14 0.0590284
5 *10:13 0.0590284
6 *10:11 0.0580471
7 *10:10 0.0594781
8 *419:io_in[18] *48:7 0
9 *419:io_in[18] *84:11 0.00516877
10 *419:io_in[18] *85:13 0
11 *10:10 *83:14 9.85843e-05
*RES
1 io_in[18] *10:10 19.755 
2 *10:10 *10:11 446.85 
3 *10:11 *10:13 4.5 
4 *10:13 *10:14 459.63 
5 *10:14 *10:16 4.5 
6 *10:16 *419:io_in[18] 117.945 
*END

*D_NET *11 0.244641
*CONN
*P io_in[19] I
*I *419:io_in[19] I *D macro_golden
*CAP
1 io_in[19] 0.000178873
2 *419:io_in[19] 0.00161144
3 *11:16 0.0385772
4 *11:15 0.0369657
5 *11:13 0.0733166
6 *11:11 0.0734954
7 *419:io_in[19] *47:13 0
8 *419:io_in[19] *49:10 0
9 *419:io_in[19] *86:10 0
10 *419:io_in[19] *91:11 0.0001059
11 *11:16 *23:11 0.00807752
12 *11:16 *34:15 0.0123122
13 *11:16 *50:8 0
*RES
1 io_in[19] *11:11 2.115 
2 *11:11 *11:13 561.87 
3 *11:13 *11:15 4.5 
4 *11:15 *11:16 350.91 
5 *11:16 *419:io_in[19] 14.445 
*END

*D_NET *12 0.76661
*CONN
*P io_in[1] I
*I *419:io_in[1] I *D macro_golden
*CAP
1 io_in[1] 0.000449407
2 *419:io_in[1] 0.000894917
3 *12:11 0.0622698
4 *12:10 0.0613749
5 *12:8 0.00168288
6 *12:7 0.00213229
7 *419:io_in[1] *50:7 0
8 *419:io_in[1] *77:7 0
9 *12:8 *39:11 0.12435
10 *12:8 *50:11 0.00166949
11 *12:8 *88:12 0.112214
12 *12:11 *419:io_in[6] 0.000163437
13 *12:11 *27:19 0.0580798
14 *12:11 *28:19 0.000787918
15 *12:11 *35:13 0.340541
*RES
1 io_in[1] *12:7 8.145 
2 *12:7 *12:8 316.35 
3 *12:8 *12:10 4.5 
4 *12:10 *12:11 879.03 
5 *12:11 *419:io_in[1] 10.665 
*END

*D_NET *13 0.222457
*CONN
*P io_in[20] I
*I *419:io_in[20] I *D macro_golden
*CAP
1 io_in[20] 0.0729793
2 *419:io_in[20] 0.00126322
3 *13:8 0.0253762
4 *13:7 0.024113
5 *13:5 0.0729793
6 *419:io_in[20] *51:9 0.00191764
7 *419:io_in[20] *85:13 0.000370209
8 *419:io_in[20] *87:13 0
9 *13:8 *19:15 0.0115054
10 *13:8 *30:11 0.00664054
11 *13:8 *70:8 0.00531188
12 *13:8 *71:8 0
*RES
1 io_in[20] *13:5 559.125 
2 *13:5 *13:7 4.5 
3 *13:7 *13:8 240.75 
4 *13:8 *419:io_in[20] 17.145 
*END

*D_NET *14 0.205464
*CONN
*P io_in[21] I
*I *419:io_in[21] I *D macro_golden
*CAP
1 io_in[21] 0.00127149
2 *419:io_in[21] 0.00105818
3 *14:14 0.00700836
4 *14:13 0.00595017
5 *14:11 0.0728373
6 *14:10 0.0728373
7 *14:8 0.0049723
8 *14:7 0.00624379
9 *419:io_in[21] *52:5 0
10 *419:io_in[21] *87:13 0.000530276
11 *419:io_in[21] *89:13 0
12 *14:8 io_out[21] 0.00325945
13 *14:8 *48:14 0.00330728
14 *14:8 *49:14 0.00996499
15 *14:11 io_oeb[21] 0.00017822
16 *14:14 *419:io_in[24] 0.00542028
17 *14:14 *419:io_in[30] 0.00543653
18 *14:14 *16:14 0.00363708
19 *14:14 *28:19 0.00155107
20 *14:14 *39:8 0
*RES
1 io_in[21] *14:7 12.285 
2 *14:7 *14:8 70.65 
3 *14:8 *14:10 4.5 
4 *14:10 *14:11 556.65 
5 *14:11 *14:13 4.5 
6 *14:13 *14:14 58.95 
7 *14:14 *419:io_in[21] 11.925 
*END

*D_NET *15 0.165335
*CONN
*P io_in[22] I
*I *419:io_in[22] I *D macro_golden
*CAP
1 io_in[22] 0.00488612
2 *419:io_in[22] 0.0415502
3 *15:14 0.0439647
4 *15:9 0.0288103
5 *15:7 0.0312819
6 *419:io_in[22] *53:10 0
7 *419:io_in[22] *53:13 0.0148417
8 *419:io_in[22] *90:7 0
9 *15:9 *94:11 0
10 *15:14 *96:14 0
*RES
1 io_in[22] *15:7 37.305 
2 *15:7 *15:9 203.94 
3 *15:9 *15:14 26.73 
4 *15:14 *419:io_in[22] 331.245 
*END

*D_NET *16 0.18368
*CONN
*P io_in[23] I
*I *419:io_in[23] I *D macro_golden
*CAP
1 io_in[23] 0.00106258
2 *419:io_in[23] 0.00109434
3 *16:14 0.012246
4 *16:13 0.0111516
5 *16:11 0.072411
6 *16:10 0.0734736
7 *419:io_in[23] *54:10 0
8 *419:io_in[23] *91:10 0
9 *419:io_in[23] *92:11 0.000203949
10 *16:10 *54:14 0.00011103
11 *16:11 *71:7 0.000710457
12 *16:14 *419:io_in[24] 0.00177235
13 *16:14 *28:19 0.00505419
14 *16:14 *39:8 0
15 *16:14 *86:10 0.000752236
16 *14:14 *16:14 0.00363708
*RES
1 io_in[23] *16:10 17.595 
2 *16:10 *16:11 557.55 
3 *16:11 *16:13 4.5 
4 *16:13 *16:14 91.35 
5 *16:14 *419:io_in[23] 11.745 
*END

*D_NET *17 0.217546
*CONN
*P io_in[24] I
*I *419:io_in[24] I *D macro_golden
*CAP
1 io_in[24] 0.000201168
2 *419:io_in[24] 0.00313637
3 *17:16 0.0730866
4 *17:15 0.0699502
5 *17:13 0.0253309
6 *17:11 0.0255321
7 *419:io_in[24] *39:8 0.000777612
8 *419:io_in[24] *55:7 0
9 *419:io_in[24] *92:10 0
10 *419:io_in[24] *93:11 8.75469e-05
11 *17:13 io_out[22] 3.57406e-05
12 *17:16 *47:13 0.0122155
13 *17:16 *48:7 0
14 *14:14 *419:io_in[24] 0.00542028
15 *16:14 *419:io_in[24] 0.00177235
*RES
1 io_in[24] *17:11 1.935 
2 *17:11 *17:13 160.11 
3 *17:13 *17:15 4.5 
4 *17:15 *17:16 549.27 
5 *17:16 *419:io_in[24] 42.615 
*END

*D_NET *18 0.201624
*CONN
*P io_in[25] I
*I *419:io_in[25] I *D macro_golden
*CAP
1 io_in[25] 0.000125876
2 *419:io_in[25] 0.00305762
3 *18:19 0.00643464
4 *18:18 0.00337702
5 *18:16 0.0600582
6 *18:15 0.0600582
7 *18:13 0.0227309
8 *18:11 0.0228567
9 *419:io_in[25] *56:9 0.00378631
10 *419:io_in[25] *93:10 0
11 *419:io_in[25] *94:11 0
12 *419:io_in[25] *95:11 0.000570559
13 *18:19 *75:8 0.0185679
14 *419:io_in[15] *18:16 0
*RES
1 io_in[25] *18:11 1.395 
2 *18:11 *18:13 143.91 
3 *18:13 *18:15 4.5 
4 *18:15 *18:16 460.17 
5 *18:16 *18:18 4.5 
6 *18:18 *18:19 47.07 
7 *18:19 *419:io_in[25] 33.705 
*END

*D_NET *19 0.171388
*CONN
*P io_in[26] I
*I *419:io_in[26] I *D macro_golden
*CAP
1 io_in[26] 0.00177706
2 *419:io_in[26] 0.00181153
3 *19:15 0.0124325
4 *19:14 0.010621
5 *19:12 0.0532524
6 *19:11 0.0532524
7 *19:9 0.00940267
8 *19:7 0.0111797
9 *419:io_in[26] *57:7 0
10 *419:io_in[26] *94:10 0
11 *419:io_in[26] *96:11 0.000761379
12 *19:15 *30:11 0.00539226
13 *19:15 *71:8 0
14 *13:8 *19:15 0.0115054
*RES
1 io_in[26] *19:7 13.185 
2 *19:7 *19:9 74.34 
3 *19:9 *19:11 4.5 
4 *19:11 *19:12 409.05 
5 *19:12 *19:14 4.5 
6 *19:14 *19:15 108.63 
7 *19:15 *419:io_in[26] 17.325 
*END

*D_NET *20 0.163859
*CONN
*P io_in[27] I
*I *419:io_in[27] I *D macro_golden
*CAP
1 io_in[27] 0.00035683
2 *419:io_in[27] 0.00615176
3 *20:19 0.0105813
4 *20:18 0.00442957
5 *20:16 0.0405938
6 *20:15 0.0405938
7 *20:13 0.0174828
8 *20:11 0.0178396
9 *419:io_in[27] *24:16 0
10 *419:io_in[27] *95:10 0.00060616
11 *419:io_in[27] *97:11 0
12 *20:19 *81:10 0.0252232
*RES
1 io_in[27] *20:11 3.015 
2 *20:11 *20:13 135.81 
3 *20:13 *20:15 4.5 
4 *20:15 *20:16 311.49 
5 *20:16 *20:18 4.5 
6 *20:18 *20:19 63.63 
7 *20:19 *419:io_in[27] 46.035 
*END

*D_NET *21 0.15436
*CONN
*P io_in[28] I
*I *419:io_in[28] I *D macro_golden
*CAP
1 io_in[28] 0.000249598
2 *419:io_in[28] 0.00494007
3 *21:19 0.0113865
4 *21:18 0.00644642
5 *21:16 0.0328728
6 *21:15 0.0328728
7 *21:13 0.0146925
8 *21:11 0.0149421
9 *419:io_in[28] *59:7 0
10 *419:io_in[28] *76:11 1.47961e-05
11 *419:io_in[28] *96:10 0
12 *21:19 *37:13 0
13 *21:19 *76:8 0.0359423
*RES
1 io_in[28] *21:11 2.475 
2 *21:11 *21:13 114.21 
3 *21:13 *21:15 4.5 
4 *21:15 *21:16 252.27 
5 *21:16 *21:18 4.5 
6 *21:18 *21:19 91.35 
7 *21:19 *419:io_in[28] 36.405 
*END

*D_NET *22 0.128221
*CONN
*P io_in[29] I
*I *419:io_in[29] I *D macro_golden
*CAP
1 io_in[29] 0.000177869
2 *419:io_in[29] 0.00256775
3 *22:19 0.0112979
4 *22:18 0.00873014
5 *22:16 0.0261599
6 *22:15 0.0261599
7 *22:13 0.00919117
8 *22:11 0.00936903
9 *419:io_in[29] *60:7 0
10 *419:io_in[29] *97:10 0
11 *22:19 *38:11 0.000805182
12 *22:19 *40:8 0.00961605
13 *22:19 *49:10 0.000204859
14 *22:19 *71:8 0
15 *22:19 *89:14 0.014479
16 *1:11 *22:19 0.00946235
*RES
1 io_in[29] *22:11 1.935 
2 *22:11 *22:13 71.01 
3 *22:13 *22:15 4.5 
4 *22:15 *22:16 200.79 
5 *22:16 *22:18 4.5 
6 *22:18 *22:19 139.41 
7 *22:19 *419:io_in[29] 20.385 
*END

*D_NET *23 0.708539
*CONN
*P io_in[2] I
*I *419:io_in[2] I *D macro_golden
*CAP
1 io_in[2] 0.000384734
2 *419:io_in[2] 0.00132087
3 *23:11 0.0444127
4 *23:10 0.0430918
5 *23:8 0.00171793
6 *23:7 0.00210266
7 *23:8 *50:11 0.10033
8 *23:8 *70:11 0.000352395
9 *23:8 *99:11 0.0901588
10 *23:11 *34:15 0.00218423
11 *23:11 *39:8 0.348548
12 *23:11 *68:8 0.0658574
13 *11:16 *23:11 0.00807752
*RES
1 io_in[2] *23:7 7.605 
2 *23:7 *23:8 255.33 
3 *23:8 *23:10 4.5 
4 *23:10 *23:11 874.71 
5 *23:11 *419:io_in[2] 13.365 
*END

*D_NET *24 0.10163
*CONN
*P io_in[30] I
*I *419:io_in[30] I *D macro_golden
*CAP
1 io_in[30] 0.000113196
2 *419:io_in[30] 0.00213413
3 *24:16 0.0214782
4 *24:15 0.0193441
5 *24:13 0.0260652
6 *24:11 0.0261784
7 *419:io_in[30] *28:19 0.00088018
8 *419:io_in[30] *62:5 0
9 *419:io_in[30] *98:10 0
10 *24:16 *58:7 0
11 *419:io_in[27] *24:16 0
12 *14:14 *419:io_in[30] 0.00543653
*RES
1 io_in[30] *24:11 1.395 
2 *24:11 *24:13 200.61 
3 *24:13 *24:15 4.5 
4 *24:15 *24:16 141.93 
5 *24:16 *419:io_in[30] 30.915 
*END

*D_NET *25 0.106602
*CONN
*P io_in[31] I
*I *419:io_in[31] I *D macro_golden
*CAP
1 io_in[31] 0.00179421
2 *419:io_in[31] 0.00675526
3 *25:15 0.0196942
4 *25:14 0.0176817
5 *25:9 0.012852
6 *25:7 0.00990342
7 *419:io_in[31] *63:7 0
8 *419:io_in[31] *100:10 0
9 *25:15 *41:8 0.0379213
*RES
1 io_in[31] *25:7 13.185 
2 *25:7 *25:9 63.54 
3 *25:9 *25:14 45.45 
4 *25:14 *25:15 143.73 
5 *25:15 *419:io_in[31] 49.725 
*END

*D_NET *26 0.157084
*CONN
*P io_in[32] I
*I *419:io_in[32] I *D macro_golden
*CAP
1 io_in[32] 0.0002641
2 *419:io_in[32] 0.00189284
3 *26:13 0.00925256
4 *26:11 0.00762383
5 *419:io_in[32] *101:5 0
6 *26:13 *30:11 0.0812843
7 *26:13 *50:8 0.00183996
8 *26:13 *70:8 0.0549264
*RES
1 io_in[32] *26:11 2.655 
2 *26:11 *26:13 224.91 
3 *26:13 *419:io_in[32] 16.245 
*END

*D_NET *27 0.16309
*CONN
*P io_in[33] I
*I *419:io_in[33] I *D macro_golden
*CAP
1 io_in[33] 0.00499824
2 *419:io_in[33] 0.00100377
3 *27:19 0.00763596
4 *27:18 0.00663219
5 *27:16 0.00821638
6 *27:15 0.0132146
7 *419:io_in[33] *102:7 0
8 *27:19 *28:19 0.0633095
9 *12:11 *27:19 0.0580798
*RES
1 io_in[33] *27:15 42.885 
2 *27:15 *27:16 62.55 
3 *27:16 *27:18 4.5 
4 *27:18 *27:19 193.95 
5 *27:19 *419:io_in[33] 10.845 
*END

*D_NET *28 0.149187
*CONN
*P io_in[34] I
*I *419:io_in[34] I *D macro_golden
*CAP
1 io_in[34] 0.000177869
2 *419:io_in[34] 0.00101414
3 *28:19 0.0122554
4 *28:18 0.0112413
5 *28:16 0.0170448
6 *28:15 0.0170448
7 *28:13 0.00779771
8 *28:11 0.00797558
9 *419:io_in[34] *103:7 0
10 *28:19 *86:10 0.00305253
11 *419:io_in[30] *28:19 0.00088018
12 *12:11 *28:19 0.000787918
13 *14:14 *28:19 0.00155107
14 *16:14 *28:19 0.00505419
15 *27:19 *28:19 0.0633095
*RES
1 io_in[34] *28:11 1.935 
2 *28:11 *28:13 60.21 
3 *28:13 *28:15 4.5 
4 *28:15 *28:16 130.23 
5 *28:16 *28:18 4.5 
6 *28:18 *28:19 174.51 
7 *28:19 *419:io_in[34] 11.025 
*END

*D_NET *29 0.207501
*CONN
*P io_in[35] I
*I *419:io_in[35] I *D macro_golden
*CAP
1 io_in[35] 0.000113196
2 *419:io_in[35] 0.00141156
3 *29:19 0.0051362
4 *29:18 0.00372464
5 *29:16 0.0261551
6 *29:15 0.0261551
7 *29:13 0.00709047
8 *29:11 0.00720366
9 *419:io_in[35] *104:7 0
10 *29:19 *34:15 0.0575289
11 *29:19 *68:8 0.0729817
*RES
1 io_in[35] *29:11 1.395 
2 *29:11 *29:13 54.81 
3 *29:13 *29:15 4.5 
4 *29:15 *29:16 200.43 
5 *29:16 *29:18 4.5 
6 *29:18 *29:19 184.77 
7 *29:19 *419:io_in[35] 13.725 
*END

*D_NET *30 0.197506
*CONN
*P io_in[36] I
*I *419:io_in[36] I *D macro_golden
*CAP
1 io_in[36] 0.00260572
2 *419:io_in[36] 0.00181196
3 *30:11 0.0124888
4 *30:10 0.0106769
5 *30:8 0.0352397
6 *30:7 0.0378454
7 *419:io_in[36] *68:7 0
8 *419:io_in[36] *105:7 0
9 *30:11 *70:8 0.00352041
10 *13:8 *30:11 0.00664054
11 *19:15 *30:11 0.00539226
12 *26:13 *30:11 0.0812843
*RES
1 io_in[36] *30:7 24.165 
2 *30:7 *30:8 270.45 
3 *30:8 *30:10 4.5 